                                  MODFLOW-2000
      U.S. GEOLOGICAL SURVEY MODULAR FINITE-DIFFERENCE GROUND-WATER FLOW MODEL
                           VERSION 1.15.00 08/06/2004


 This model run combines GLOBAL and LIST output into this single file.

 GLOBAL LISTING FILE: t5.lst
                         UNIT    7
#                                                                                                                                                                                                       
# Input files                                                                                                                                                                                           

 OPENING t5.dis
 FILE TYPE:DIS   UNIT    8   STATUS:OLD    
 FORMAT:FORMATTED              ACCESS:SEQUENTIAL          

 OPENING t5.bas
 FILE TYPE:BAS6   UNIT    9   STATUS:OLD    
 FORMAT:FORMATTED              ACCESS:SEQUENTIAL          

 OPENING t5.bcf
 FILE TYPE:BCF6   UNIT   10   STATUS:OLD    
 FORMAT:FORMATTED              ACCESS:SEQUENTIAL          

 OPENING t5.mnw
 FILE TYPE:MNW1   UNIT   75   STATUS:OLD    
 FORMAT:FORMATTED              ACCESS:SEQUENTIAL          

 OPENING t5.pcg
 FILE TYPE:PCG   UNIT   74   STATUS:OLD    
 FORMAT:FORMATTED              ACCESS:SEQUENTIAL          

 OPENING t5.oc
 FILE TYPE:OC   UNIT   71   STATUS:OLD    
 FORMAT:FORMATTED              ACCESS:SEQUENTIAL          

 OPENING t5.lmt
 FILE TYPE:LMT6   UNIT   66   STATUS:OLD    
 FORMAT:FORMATTED              ACCESS:SEQUENTIAL          
#                                                                                                                                                                                                       
# Binary output files                                                                                                                                                                                   

 OPENING t5.ufh
 FILE TYPE:DATA(BINARY)   UNIT   89   STATUS:REPLACE
 FORMAT:UNFORMATTED            ACCESS:TRANSPARENT         

 OPENING t5.cbc
 FILE TYPE:DATA(BINARY)   UNIT   90   STATUS:REPLACE
 FORMAT:UNFORMATTED            ACCESS:TRANSPARENT         

 THE FREE FORMAT OPTION HAS BEEN SELECTED

 DISCRETIZATION INPUT DATA READ FROM UNIT    8
    3 LAYERS       101 ROWS       101 COLUMNS
    1 STRESS PERIOD(S) IN SIMULATION
 MODEL TIME UNIT IS SECONDS
 MODEL LENGTH UNIT IS FEET
 THE GROUND-WATER TRANSPORT PROCESS IS INACTIVE

 THE OBSERVATION PROCESS IS INACTIVE
 THE SENSITIVITY PROCESS IS INACTIVE
 THE PARAMETER-ESTIMATION PROCESS IS INACTIVE

 MODE: FORWARD

  Confining bed flag for each layer:
   0   0   0

     275629  ELEMENTS OF GX ARRAY USED OUT OF     275629
      30603  ELEMENTS OF GZ ARRAY USED OUT OF      30603
      30603  ELEMENTS OF IG ARRAY USED OUT OF      30603



                               DELR
 READING ON UNIT    8 WITH FORMAT: (10F11.0)           
   2798.0       2465.0       2172.0       1914.0       1687.0    
   1486.0       1309.0       1154.0       1017.0       895.80    
   789.40       695.50       612.90       540.00       475.80    
   419.30       369.40       325.50       286.80       252.70    
   222.70       196.20       172.90       152.30       134.20    
   118.30       104.20       91.830       80.920       71.300    
   62.820       55.360       48.780       42.980       37.870    
   33.370       29.400       25.910       22.830       20.110    
   17.720       15.620       13.760       12.120       10.680    
   9.4140       8.2950       7.3090       6.4400       5.6740    
   5.0000       5.6740       6.4400       7.3090       8.2950    
   9.4140       10.680       12.120       13.760       15.620    
   17.720       20.110       22.830       25.910       29.400    
   33.370       37.870       42.980       48.780       55.360    
   62.820       71.300       80.920       91.830       104.20    
   118.30       134.20       152.30       172.90       196.20    
   222.70       252.70       286.80       325.50       369.40    
   419.30       475.80       540.00       612.90       695.50    
   789.40       895.80       1017.0       1154.0       1309.0    
   1486.0       1687.0       1914.0       2172.0       2465.0    
   2798.0    



                               DELC
 READING ON UNIT    8 WITH FORMAT: (10F11.0)           
   2798.0       2465.0       2172.0       1914.0       1687.0    
   1486.0       1309.0       1154.0       1017.0       895.80    
   789.40       695.50       612.90       540.00       475.80    
   419.30       369.40       325.50       286.80       252.70    
   222.70       196.20       172.90       152.30       134.20    
   118.30       104.20       91.830       80.920       71.300    
   62.820       55.360       48.780       42.980       37.870    
   33.370       29.400       25.910       22.830       20.110    
   17.720       15.620       13.760       12.120       10.680    
   9.4140       8.2950       7.3090       6.4400       5.6740    
   5.0000       5.6740       6.4400       7.3090       8.2950    
   9.4140       10.680       12.120       13.760       15.620    
   17.720       20.110       22.830       25.910       29.400    
   33.370       37.870       42.980       48.780       55.360    
   62.820       71.300       80.920       91.830       104.20    
   118.30       134.20       152.30       172.90       196.20    
   222.70       252.70       286.80       325.50       369.40    
   419.30       475.80       540.00       612.90       695.50    
   789.40       895.80       1017.0       1154.0       1309.0    
   1486.0       1687.0       1914.0       2172.0       2465.0    
   2798.0    

 TOP ELEVATION OF LAYER 1 =   220.000    

   MODEL LAYER BOTTOM EL. =   120.000     FOR LAYER   1

   MODEL LAYER BOTTOM EL. =   100.000     FOR LAYER   2

   MODEL LAYER BOTTOM EL. =   0.00000     FOR LAYER   3


 STRESS PERIOD     LENGTH       TIME STEPS     MULTIPLIER FOR DELT    SS FLAG
 ----------------------------------------------------------------------------
        1        8.6400000E+07    100                    1.100         TR

 TRANSIENT SIMULATION




 PCG2 -- CONJUGATE GRADIENT SOLUTION PACKAGE, VERSION 2.4, 12/29/98
 # MXITER, ITER1, NPCOND
 MAXIMUM OF   1000 CALLS OF SOLUTION ROUTINE
 MAXIMUM OF     10 INTERNAL ITERATIONS PER CALL TO SOLUTION ROUTINE
 MATRIX PRECONDITIONING TYPE :    1
      81206 ELEMENTS IN X ARRAY ARE USED BY PCG
      70000 ELEMENTS IN IX ARRAY ARE USED BY PCG
     122412 ELEMENTS IN Z ARRAY ARE USED BY PCG

      81206  ELEMENTS OF X ARRAY USED OUT OF      81206
     122412  ELEMENTS OF Z ARRAY USED OUT OF     122412
      70000  ELEMENTS OF IX ARRAY USED OUT OF      70000
          0  ELEMENTS OF XHS ARRAY USED OUT OF          1



                                    SOLUTION BY THE CONJUGATE-GRADIENT METHOD
                                   -------------------------------------------
                    MAXIMUM NUMBER OF CALLS TO PCG ROUTINE =     1000
                        MAXIMUM ITERATIONS PER CALL TO PCG =       10
                               MATRIX PRECONDITIONING TYPE =        1
        RELAXATION FACTOR (ONLY USED WITH PRECOND. TYPE 1) =    0.10000E+01
 PARAMETER OF POLYNOMIAL PRECOND. = 2 (2) OR IS CALCULATED :        2
                         HEAD CHANGE CRITERION FOR CLOSURE =    0.10000E-02
                     RESIDUAL CHANGE CRITERION FOR CLOSURE =    0.10000E+00
            PCG HEAD AND RESIDUAL CHANGE PRINTOUT INTERVAL =        1
     PRINTING FROM SOLVER IS LIMITED(1) OR SUPPRESSED (>1) =        1
                                         DAMPING PARAMETER =    0.10000E+01
 
 # MNW1 Package benchmarking - Transient 4                                       
 THE FREE FORMAT OPTION HAS BEEN SELECTED
    3 LAYERS       101 ROWS       101 COLUMNS
    1 STRESS PERIOD(S) IN SIMULATION

 BAS6 -- BASIC PACKAGE, VERSION 6, 1/11/2000 INPUT READ FROM UNIT    9
         15 ELEMENTS IN IR ARRAY ARE USED BY BAS

 BCF6 -- BLOCK-CENTERED FLOW PACKAGE, VERSION 6, 1/11/2000
         INPUT READ FROM UNIT 10
 TRANSIENT SIMULATION
 HEAD AT CELLS THAT CONVERT TO DRY=  0.10000E+31
 WETTING CAPABILITY IS NOT ACTIVE
      LAYER  LAYER-TYPE CODE     INTERBLOCK T
      --------------------------------------------
         1            0          0 -- HARMONIC    
         2            0          0 -- HARMONIC    
         3            0          0 -- HARMONIC    
      30606 ELEMENTS IN RX ARRAY ARE USED BY BCF

 MNW1 -- MULTI-NODE WELL PACKAGE, VERSION 1, 8/13/2002.
    INPUT READ FROM UNIT  75
 MAXIMUM OF    2 WELLS
 CELL-BY-CELL FLOWS WILL BE PRINTED WHEN ICBCFL NOT 0
  The heads at the beginning of SP:   1 will be the default reference elevations.

 Flow rates will not be estimated after the9999th iteration

  A WEL1   data input file will be written to t.wl1 on unit   91                

  A BYNODE data input file will be written to t.ByNode on unit   92             

  A QSUM   data input file will be written to t.Qsum on unit   93               
  30603 ELEMENTS IN X ARRAY ARE USED FOR MNW1

      61260  ELEMENTS OF RX ARRAY USED OUT OF      61260
         15  ELEMENTS OF IR ARRAY USED OUT OF         15
1
 # MNW1 Package benchmarking - Transient 4                                       
                                                                                 



                     BOUNDARY ARRAY FOR LAYER   1
 READING ON UNIT    9 WITH FORMAT: (20I3)              

           BOUNDARY ARRAY =              0 FOR LAYER   2



                     BOUNDARY ARRAY FOR LAYER   3
 READING ON UNIT    9 WITH FORMAT: (20I3)              

 AQUIFER HEAD WILL BE SET TO  999.00     AT ALL NO-FLOW NODES (IBOUND=0).

             INITIAL HEAD =   30.0000     FOR LAYER   1

             INITIAL HEAD =   20.0000     FOR LAYER   2

             INITIAL HEAD =   10.0000     FOR LAYER   3

 OUTPUT CONTROL IS SPECIFIED EVERY TIME STEP
 HEAD PRINT FORMAT CODE IS   0    DRAWDOWN PRINT FORMAT CODE IS   0
 HEADS WILL BE SAVED ON UNIT   89    DRAWDOWNS WILL BE SAVED ON UNIT    0

 COLUMN TO ROW ANISOTROPY =   1.00000    

     PRIMARY STORAGE COEF =  1.000000E-04 FOR LAYER   1

     TRANSMIS. ALONG ROWS =  4.630000E-02 FOR LAYER   1

 VERT HYD COND /THICKNESS =   0.00000     FOR LAYER   1

     PRIMARY STORAGE COEF =  1.000000E-04 FOR LAYER   2

     TRANSMIS. ALONG ROWS =   0.00000     FOR LAYER   2

 VERT HYD COND /THICKNESS =   0.00000     FOR LAYER   2

     PRIMARY STORAGE COEF =  1.000000E-04 FOR LAYER   3

     TRANSMIS. ALONG ROWS =  1.157000E-02 FOR LAYER   3
1
                            STRESS PERIOD NO.    1, LENGTH =  0.8640000E+08
                            -----------------------------------------------

                              NUMBER OF TIME STEPS =   100

                               MULTIPLIER FOR DELT =     1.100

                            INITIAL TIME STEP SIZE =   627.0118    
0              2 MNW WELLS
    No.   Lay   Row   Col    Stress   QW param      Rw       Skin    WL Limit    WL Refer   NonLinear Cp  QW Group  Cell-To-Well  Min-Qoff  Min-Qon  Site Identifier 
      1     1    51    51  0.000      0.000     0.5000      0.000      0.000      100.0      0.00000             1 0.425903         0.000     0.000  Well-1                          
      2     3    51    51  0.000      0.000     0.5000      0.000      0.000      100.0      0.00000             1 0.106430         0.000     0.000  Well-1                          
 
 SOLVING FOR HEAD 


     6 CALLS TO PCG ROUTINE FOR TIME STEP   1 IN STRESS PERIOD    1
    42 TOTAL ITERATIONS

 HEAD/DRAWDOWN PRINTOUT FLAG = 1     TOTAL BUDGET PRINTOUT FLAG = 0
 CELL-BY-CELL FLOW TERM FLAG = 1

 OUTPUT FLAGS FOR ALL LAYERS ARE THE SAME:
   HEAD    DRAWDOWN  HEAD  DRAWDOWN
 PRINTOUT  PRINTOUT  SAVE    SAVE
 ----------------------------------
     0         0       1       0

              MNW PERIOD =    1  STEP =    1
  Entry LAY ROW COL         Q      H-Well       H-Cell       DD           QW-Avg      s-LINEAR   s-NonLINEAR
      1   1  51  51 -.176050      25.6652      26.0785     -74.3348      0.00000     0.413371      0.00000    
      2   3  51  51 0.176050      25.6652      24.0110     -74.3348      0.00000     -1.65419      0.00000    

      Multi-Node Rates & Average QW 
 Site Identifier      ENTRY: Begin - End  Q-Total       H-Well       DD           QW-Avg
Well-1                          1     2 -.447035E-07  25.6652     -74.3348      0.00000    
 
 UBUDSV SAVING "             MNW" ON UNIT 90 AT TIME STEP  1, STRESS PERIOD    1


 ***Link-MT3DMS Package***
 OPENING LINK-MT3DMS OUTPUT FILE: t5.ftl                                                                                                                                                                                                  
 ON UNIT NUMBER:   333
 FILE TYPE: UNFORMATTED
 HEADER OPTION: EXTENDED
 ***Link-MT3DMS Package***


 SAVING SATURATED THICKNESS AND FLOW TERMS ON UNIT  333 FOR MT3DMS
 BY THE LINK-MT3DMS PACKAGE V6.2 AT TIME STEP    1, STRESS PERIOD    1


 HEAD WILL BE SAVED ON UNIT   89 AT END OF TIME STEP   1, STRESS PERIOD    1
 
 SOLVING FOR HEAD 
     4 CALLS TO PCG ROUTINE FOR TIME STEP   2 IN STRESS PERIOD    1
    27 TOTAL ITERATIONS

 HEAD/DRAWDOWN PRINTOUT FLAG = 0     TOTAL BUDGET PRINTOUT FLAG = 1
 CELL-BY-CELL FLOW TERM FLAG = 0
 REUSING PREVIOUS VALUES OF IOFLG

 SAVING SATURATED THICKNESS AND FLOW TERMS ON UNIT  333 FOR MT3DMS
 BY THE LINK-MT3DMS PACKAGE V6.2 AT TIME STEP    2, STRESS PERIOD    1

1
  VOLUMETRIC BUDGET FOR ENTIRE MODEL AT END OF TIME STEP  2 IN STRESS PERIOD   1
  ------------------------------------------------------------------------------

     CUMULATIVE VOLUMES      L**3       RATES FOR THIS TIME STEP      L**3/T
     ------------------                 ------------------------

           IN:                                      IN:
           ---                                      ---
             STORAGE =         222.3188               STORAGE =           0.1623
       CONSTANT HEAD =       6.2838E-04         CONSTANT HEAD =       6.2713E-07
                 MNW =         222.3913                   MNW =           0.1624

            TOTAL IN =         444.7108              TOTAL IN =           0.3247

          OUT:                                     OUT:
          ----                                     ----
             STORAGE =         222.3047               STORAGE =           0.1622
       CONSTANT HEAD =       3.3681E-03         CONSTANT HEAD =       2.0193E-06
                 MNW =         222.3911                   MNW =           0.1624

           TOTAL OUT =         444.6992             TOTAL OUT =           0.3246

            IN - OUT =       1.1588E-02              IN - OUT =       1.3439E-04

 PERCENT DISCREPANCY =           0.00     PERCENT DISCREPANCY =           0.04






          TIME SUMMARY AT END OF TIME STEP   2 IN STRESS PERIOD    1
                    SECONDS     MINUTES      HOURS       DAYS        YEARS
                    -----------------------------------------------------------
   TIME STEP LENGTH  689.71      11.495     0.19159     7.98279E-03 2.18557E-05
 STRESS PERIOD TIME  1316.7      21.945     0.36576     1.52399E-02 4.17245E-05
         TOTAL TIME  1316.7      21.945     0.36576     1.52399E-02 4.17245E-05
1
 
 SOLVING FOR HEAD 
     4 CALLS TO PCG ROUTINE FOR TIME STEP   3 IN STRESS PERIOD    1
    25 TOTAL ITERATIONS

 HEAD/DRAWDOWN PRINTOUT FLAG = 0     TOTAL BUDGET PRINTOUT FLAG = 1
 CELL-BY-CELL FLOW TERM FLAG = 0
 REUSING PREVIOUS VALUES OF IOFLG

 SAVING SATURATED THICKNESS AND FLOW TERMS ON UNIT  333 FOR MT3DMS
 BY THE LINK-MT3DMS PACKAGE V6.2 AT TIME STEP    3, STRESS PERIOD    1

1
  VOLUMETRIC BUDGET FOR ENTIRE MODEL AT END OF TIME STEP  3 IN STRESS PERIOD   1
  ------------------------------------------------------------------------------

     CUMULATIVE VOLUMES      L**3       RATES FOR THIS TIME STEP      L**3/T
     ------------------                 ------------------------

           IN:                                      IN:
           ---                                      ---
             STORAGE =         340.8539               STORAGE =           0.1562
       CONSTANT HEAD =       8.3992E-04         CONSTANT HEAD =       2.7882E-07
                 MNW =         340.8609                   MNW =           0.1562

            TOTAL IN =         681.7156              TOTAL IN =           0.3124

          OUT:                                     OUT:
          ----                                     ----
             STORAGE =         340.6978               STORAGE =           0.1561
       CONSTANT HEAD =       5.3463E-03         CONSTANT HEAD =       2.6075E-06
                 MNW =         340.8601                   MNW =           0.1562

           TOTAL OUT =         681.5632             TOTAL OUT =           0.3122

            IN - OUT =           0.1524              IN - OUT =       1.8560E-04

 PERCENT DISCREPANCY =           0.02     PERCENT DISCREPANCY =           0.06






          TIME SUMMARY AT END OF TIME STEP   3 IN STRESS PERIOD    1
                    SECONDS     MINUTES      HOURS       DAYS        YEARS
                    -----------------------------------------------------------
   TIME STEP LENGTH  758.68      12.645     0.21075     8.78107E-03 2.40413E-05
 STRESS PERIOD TIME  2075.4      34.590     0.57650     2.40209E-02 6.57658E-05
         TOTAL TIME  2075.4      34.590     0.57650     2.40209E-02 6.57658E-05
1
 
 SOLVING FOR HEAD 
     4 CALLS TO PCG ROUTINE FOR TIME STEP   4 IN STRESS PERIOD    1
    22 TOTAL ITERATIONS

 HEAD/DRAWDOWN PRINTOUT FLAG = 0     TOTAL BUDGET PRINTOUT FLAG = 1
 CELL-BY-CELL FLOW TERM FLAG = 0
 REUSING PREVIOUS VALUES OF IOFLG

 SAVING SATURATED THICKNESS AND FLOW TERMS ON UNIT  333 FOR MT3DMS
 BY THE LINK-MT3DMS PACKAGE V6.2 AT TIME STEP    4, STRESS PERIOD    1

1
  VOLUMETRIC BUDGET FOR ENTIRE MODEL AT END OF TIME STEP  4 IN STRESS PERIOD   1
  ------------------------------------------------------------------------------

     CUMULATIVE VOLUMES      L**3       RATES FOR THIS TIME STEP      L**3/T
     ------------------                 ------------------------

           IN:                                      IN:
           ---                                      ---
             STORAGE =         467.9394               STORAGE =           0.1523
       CONSTANT HEAD =       1.0970E-03         CONSTANT HEAD =       3.0808E-07
                 MNW =         467.8376                   MNW =           0.1521

            TOTAL IN =         935.7780              TOTAL IN =           0.3044

          OUT:                                     OUT:
          ----                                     ----
             STORAGE =         467.6517               STORAGE =           0.1521
       CONSTANT HEAD =       7.4086E-03         CONSTANT HEAD =       2.4711E-06
                 MNW =         467.8369                   MNW =           0.1521

           TOTAL OUT =         935.4960             TOTAL OUT =           0.3043

            IN - OUT =           0.2821              IN - OUT =       1.5534E-04

 PERCENT DISCREPANCY =           0.03     PERCENT DISCREPANCY =           0.05






          TIME SUMMARY AT END OF TIME STEP   4 IN STRESS PERIOD    1
                    SECONDS     MINUTES      HOURS       DAYS        YEARS
                    -----------------------------------------------------------
   TIME STEP LENGTH  834.55      13.909     0.23182     9.65918E-03 2.64454E-05
 STRESS PERIOD TIME  2910.0      48.499     0.80832     3.36801E-02 9.22111E-05
         TOTAL TIME  2910.0      48.499     0.80832     3.36801E-02 9.22111E-05
1
 
 SOLVING FOR HEAD 
     4 CALLS TO PCG ROUTINE FOR TIME STEP   5 IN STRESS PERIOD    1
    20 TOTAL ITERATIONS

 HEAD/DRAWDOWN PRINTOUT FLAG = 0     TOTAL BUDGET PRINTOUT FLAG = 1
 CELL-BY-CELL FLOW TERM FLAG = 0
 REUSING PREVIOUS VALUES OF IOFLG

 SAVING SATURATED THICKNESS AND FLOW TERMS ON UNIT  333 FOR MT3DMS
 BY THE LINK-MT3DMS PACKAGE V6.2 AT TIME STEP    5, STRESS PERIOD    1

1
  VOLUMETRIC BUDGET FOR ENTIRE MODEL AT END OF TIME STEP  5 IN STRESS PERIOD   1
  ------------------------------------------------------------------------------

     CUMULATIVE VOLUMES      L**3       RATES FOR THIS TIME STEP      L**3/T
     ------------------                 ------------------------

           IN:                                      IN:
           ---                                      ---
             STORAGE =         604.9969               STORAGE =           0.1493
       CONSTANT HEAD =       1.3035E-03         CONSTANT HEAD =       2.2495E-07
                 MNW =         604.7838                   MNW =           0.1492

            TOTAL IN =        1209.7820              TOTAL IN =           0.2985

          OUT:                                     OUT:
          ----                                     ----
             STORAGE =         604.5951               STORAGE =           0.1492
       CONSTANT HEAD =       9.3166E-03         CONSTANT HEAD =       2.0784E-06
                 MNW =         604.7838                   MNW =           0.1492

           TOTAL OUT =        1209.3882             TOTAL OUT =           0.2984

            IN - OUT =           0.3938              IN - OUT =       1.2174E-04

 PERCENT DISCREPANCY =           0.03     PERCENT DISCREPANCY =           0.04






          TIME SUMMARY AT END OF TIME STEP   5 IN STRESS PERIOD    1
                    SECONDS     MINUTES      HOURS       DAYS        YEARS
                    -----------------------------------------------------------
   TIME STEP LENGTH  918.01      15.300     0.25500     1.06251E-02 2.90899E-05
 STRESS PERIOD TIME  3828.0      63.800      1.0633     4.43052E-02 1.21301E-04
         TOTAL TIME  3828.0      63.800      1.0633     4.43052E-02 1.21301E-04
1
 
 SOLVING FOR HEAD 
     4 CALLS TO PCG ROUTINE FOR TIME STEP   6 IN STRESS PERIOD    1
    20 TOTAL ITERATIONS

 HEAD/DRAWDOWN PRINTOUT FLAG = 0     TOTAL BUDGET PRINTOUT FLAG = 1
 CELL-BY-CELL FLOW TERM FLAG = 0
 REUSING PREVIOUS VALUES OF IOFLG

 SAVING SATURATED THICKNESS AND FLOW TERMS ON UNIT  333 FOR MT3DMS
 BY THE LINK-MT3DMS PACKAGE V6.2 AT TIME STEP    6, STRESS PERIOD    1

1
  VOLUMETRIC BUDGET FOR ENTIRE MODEL AT END OF TIME STEP  6 IN STRESS PERIOD   1
  ------------------------------------------------------------------------------

     CUMULATIVE VOLUMES      L**3       RATES FOR THIS TIME STEP      L**3/T
     ------------------                 ------------------------

           IN:                                      IN:
           ---                                      ---
             STORAGE =         753.3334               STORAGE =           0.1469
       CONSTANT HEAD =       1.6781E-03         CONSTANT HEAD =       3.7088E-07
                 MNW =         753.0151                   MNW =           0.1468

            TOTAL IN =        1506.3501              TOTAL IN =           0.2937

          OUT:                                     OUT:
          ----                                     ----
             STORAGE =         752.8345               STORAGE =           0.1468
       CONSTANT HEAD =       1.0498E-02         CONSTANT HEAD =       1.1696E-06
                 MNW =         753.0158                   MNW =           0.1468

           TOTAL OUT =        1505.8608             TOTAL OUT =           0.2936

            IN - OUT =           0.4893              IN - OUT =       9.4464E-05

 PERCENT DISCREPANCY =           0.03     PERCENT DISCREPANCY =           0.03






          TIME SUMMARY AT END OF TIME STEP   6 IN STRESS PERIOD    1
                    SECONDS     MINUTES      HOURS       DAYS        YEARS
                    -----------------------------------------------------------
   TIME STEP LENGTH  1009.8      16.830     0.28050     1.16876E-02 3.19989E-05
 STRESS PERIOD TIME  4837.8      80.630      1.3438     5.59928E-02 1.53300E-04
         TOTAL TIME  4837.8      80.630      1.3438     5.59928E-02 1.53300E-04
1
 
 SOLVING FOR HEAD 
     4 CALLS TO PCG ROUTINE FOR TIME STEP   7 IN STRESS PERIOD    1
    20 TOTAL ITERATIONS

 HEAD/DRAWDOWN PRINTOUT FLAG = 0     TOTAL BUDGET PRINTOUT FLAG = 1
 CELL-BY-CELL FLOW TERM FLAG = 0
 REUSING PREVIOUS VALUES OF IOFLG

 SAVING SATURATED THICKNESS AND FLOW TERMS ON UNIT  333 FOR MT3DMS
 BY THE LINK-MT3DMS PACKAGE V6.2 AT TIME STEP    7, STRESS PERIOD    1

1
  VOLUMETRIC BUDGET FOR ENTIRE MODEL AT END OF TIME STEP  7 IN STRESS PERIOD   1
  ------------------------------------------------------------------------------

     CUMULATIVE VOLUMES      L**3       RATES FOR THIS TIME STEP      L**3/T
     ------------------                 ------------------------

           IN:                                      IN:
           ---                                      ---
             STORAGE =         914.2486               STORAGE =           0.1449
       CONSTANT HEAD =       2.2676E-03         CONSTANT HEAD =       5.3077E-07
                 MNW =         913.8368                   MNW =           0.1448

            TOTAL IN =        1828.0876              TOTAL IN =           0.2896

          OUT:                                     OUT:
          ----                                     ----
             STORAGE =         913.6628               STORAGE =           0.1448
       CONSTANT HEAD =       1.1833E-02         CONSTANT HEAD =       1.2024E-06
                 MNW =         913.8367                   MNW =           0.1448

           TOTAL OUT =        1827.5114             TOTAL OUT =           0.2896

            IN - OUT =           0.5763              IN - OUT =       7.8334E-05

 PERCENT DISCREPANCY =           0.03     PERCENT DISCREPANCY =           0.03






          TIME SUMMARY AT END OF TIME STEP   7 IN STRESS PERIOD    1
                    SECONDS     MINUTES      HOURS       DAYS        YEARS
                    -----------------------------------------------------------
   TIME STEP LENGTH  1110.8      18.513     0.30855     1.28564E-02 3.51988E-05
 STRESS PERIOD TIME  5948.6      99.143      1.6524     6.88492E-02 1.88499E-04
         TOTAL TIME  5948.6      99.143      1.6524     6.88492E-02 1.88499E-04
1
 
 SOLVING FOR HEAD 
     4 CALLS TO PCG ROUTINE FOR TIME STEP   8 IN STRESS PERIOD    1
    20 TOTAL ITERATIONS

 HEAD/DRAWDOWN PRINTOUT FLAG = 0     TOTAL BUDGET PRINTOUT FLAG = 1
 CELL-BY-CELL FLOW TERM FLAG = 0
 REUSING PREVIOUS VALUES OF IOFLG

 SAVING SATURATED THICKNESS AND FLOW TERMS ON UNIT  333 FOR MT3DMS
 BY THE LINK-MT3DMS PACKAGE V6.2 AT TIME STEP    8, STRESS PERIOD    1

1
  VOLUMETRIC BUDGET FOR ENTIRE MODEL AT END OF TIME STEP  8 IN STRESS PERIOD   1
  ------------------------------------------------------------------------------

     CUMULATIVE VOLUMES      L**3       RATES FOR THIS TIME STEP      L**3/T
     ------------------                 ------------------------

           IN:                                      IN:
           ---                                      ---
             STORAGE =        1089.1160               STORAGE =           0.1431
       CONSTANT HEAD =       2.5161E-03         CONSTANT HEAD =       2.0336E-07
                 MNW =        1088.6042                   MNW =           0.1430

            TOTAL IN =        2177.7227              TOTAL IN =           0.2861

          OUT:                                     OUT:
          ----                                     ----
             STORAGE =        1088.4489               STORAGE =           0.1430
       CONSTANT HEAD =       1.5394E-02         CONSTANT HEAD =       2.9141E-06
                 MNW =        1088.6029                   MNW =           0.1430

           TOTAL OUT =        2177.0671             TOTAL OUT =           0.2861

            IN - OUT =           0.6556              IN - OUT =       6.4881E-05

 PERCENT DISCREPANCY =           0.03     PERCENT DISCREPANCY =           0.02






          TIME SUMMARY AT END OF TIME STEP   8 IN STRESS PERIOD    1
                    SECONDS     MINUTES      HOURS       DAYS        YEARS
                    -----------------------------------------------------------
   TIME STEP LENGTH  1221.9      20.364     0.33941     1.41420E-02 3.87187E-05
 STRESS PERIOD TIME  7170.4      119.51      1.9918     8.29912E-02 2.27217E-04
         TOTAL TIME  7170.4      119.51      1.9918     8.29912E-02 2.27217E-04
1
 
 SOLVING FOR HEAD 
     4 CALLS TO PCG ROUTINE FOR TIME STEP   9 IN STRESS PERIOD    1
    17 TOTAL ITERATIONS

 HEAD/DRAWDOWN PRINTOUT FLAG = 0     TOTAL BUDGET PRINTOUT FLAG = 1
 CELL-BY-CELL FLOW TERM FLAG = 0
 REUSING PREVIOUS VALUES OF IOFLG

 SAVING SATURATED THICKNESS AND FLOW TERMS ON UNIT  333 FOR MT3DMS
 BY THE LINK-MT3DMS PACKAGE V6.2 AT TIME STEP    9, STRESS PERIOD    1

1
  VOLUMETRIC BUDGET FOR ENTIRE MODEL AT END OF TIME STEP  9 IN STRESS PERIOD   1
  ------------------------------------------------------------------------------

     CUMULATIVE VOLUMES      L**3       RATES FOR THIS TIME STEP      L**3/T
     ------------------                 ------------------------

           IN:                                      IN:
           ---                                      ---
             STORAGE =        1279.4524               STORAGE =           0.1416
       CONSTANT HEAD =       3.1686E-03         CONSTANT HEAD =       4.8545E-07
                 MNW =        1278.7262                   MNW =           0.1415

            TOTAL IN =        2558.1816              TOTAL IN =           0.2831

          OUT:                                     OUT:
          ----                                     ----
             STORAGE =        1278.6569               STORAGE =           0.1415
       CONSTANT HEAD =       1.9630E-02         CONSTANT HEAD =       3.1517E-06
                 MNW =        1278.7255                   MNW =           0.1415

           TOTAL OUT =        2557.4019             TOTAL OUT =           0.2830

            IN - OUT =           0.7798              IN - OUT =       9.2463E-05

 PERCENT DISCREPANCY =           0.03     PERCENT DISCREPANCY =           0.03






          TIME SUMMARY AT END OF TIME STEP   9 IN STRESS PERIOD    1
                    SECONDS     MINUTES      HOURS       DAYS        YEARS
                    -----------------------------------------------------------
   TIME STEP LENGTH  1344.1      22.401     0.37335     1.55562E-02 4.25906E-05
 STRESS PERIOD TIME  8514.5      141.91      2.3651     9.85474E-02 2.69808E-04
         TOTAL TIME  8514.5      141.91      2.3651     9.85474E-02 2.69808E-04
1
 
 SOLVING FOR HEAD 
     4 CALLS TO PCG ROUTINE FOR TIME STEP  10 IN STRESS PERIOD    1
    17 TOTAL ITERATIONS

 HEAD/DRAWDOWN PRINTOUT FLAG = 0     TOTAL BUDGET PRINTOUT FLAG = 1
 CELL-BY-CELL FLOW TERM FLAG = 0
 REUSING PREVIOUS VALUES OF IOFLG

 SAVING SATURATED THICKNESS AND FLOW TERMS ON UNIT  333 FOR MT3DMS
 BY THE LINK-MT3DMS PACKAGE V6.2 AT TIME STEP   10, STRESS PERIOD    1

1
  VOLUMETRIC BUDGET FOR ENTIRE MODEL AT END OF TIME STEP 10 IN STRESS PERIOD   1
  ------------------------------------------------------------------------------

     CUMULATIVE VOLUMES      L**3       RATES FOR THIS TIME STEP      L**3/T
     ------------------                 ------------------------

           IN:                                      IN:
           ---                                      ---
             STORAGE =        1486.7391               STORAGE =           0.1402
       CONSTANT HEAD =       3.7199E-03         CONSTANT HEAD =       3.7291E-07
                 MNW =        1485.7759                   MNW =           0.1400

            TOTAL IN =        2972.5188              TOTAL IN =           0.2802

          OUT:                                     OUT:
          ----                                     ----
             STORAGE =        1485.8000               STORAGE =           0.1401
       CONSTANT HEAD =       2.3243E-02         CONSTANT HEAD =       2.4440E-06
                 MNW =        1485.7744                   MNW =           0.1400

           TOTAL OUT =        2971.5977             TOTAL OUT =           0.2802

            IN - OUT =           0.9210              IN - OUT =       9.5606E-05

 PERCENT DISCREPANCY =           0.03     PERCENT DISCREPANCY =           0.03






          TIME SUMMARY AT END OF TIME STEP  10 IN STRESS PERIOD    1
                    SECONDS     MINUTES      HOURS       DAYS        YEARS
                    -----------------------------------------------------------
   TIME STEP LENGTH  1478.5      24.641     0.41068     1.71118E-02 4.68496E-05
 STRESS PERIOD TIME  9993.0      166.55      2.7758     0.11566     3.16658E-04
         TOTAL TIME  9993.0      166.55      2.7758     0.11566     3.16658E-04
1
 
 SOLVING FOR HEAD 
     4 CALLS TO PCG ROUTINE FOR TIME STEP  11 IN STRESS PERIOD    1
    17 TOTAL ITERATIONS

 HEAD/DRAWDOWN PRINTOUT FLAG = 0     TOTAL BUDGET PRINTOUT FLAG = 1
 CELL-BY-CELL FLOW TERM FLAG = 0
 REUSING PREVIOUS VALUES OF IOFLG

 SAVING SATURATED THICKNESS AND FLOW TERMS ON UNIT  333 FOR MT3DMS
 BY THE LINK-MT3DMS PACKAGE V6.2 AT TIME STEP   11, STRESS PERIOD    1

1
  VOLUMETRIC BUDGET FOR ENTIRE MODEL AT END OF TIME STEP 11 IN STRESS PERIOD   1
  ------------------------------------------------------------------------------

     CUMULATIVE VOLUMES      L**3       RATES FOR THIS TIME STEP      L**3/T
     ------------------                 ------------------------

           IN:                                      IN:
           ---                                      ---
             STORAGE =        1712.6147               STORAGE =           0.1389
       CONSTANT HEAD =       5.0617E-03         CONSTANT HEAD =       8.2505E-07
                 MNW =        1711.4252                   MNW =           0.1387

            TOTAL IN =        3424.0449              TOTAL IN =           0.2776

          OUT:                                     OUT:
          ----                                     ----
             STORAGE =        1711.5470               STORAGE =           0.1388
       CONSTANT HEAD =       2.6013E-02         CONSTANT HEAD =       1.7032E-06
                 MNW =        1711.4237                   MNW =           0.1387

           TOTAL OUT =        3422.9968             TOTAL OUT =           0.2776

            IN - OUT =           1.0483              IN - OUT =       7.8262E-05

 PERCENT DISCREPANCY =           0.03     PERCENT DISCREPANCY =           0.03






          TIME SUMMARY AT END OF TIME STEP  11 IN STRESS PERIOD    1
                    SECONDS     MINUTES      HOURS       DAYS        YEARS
                    -----------------------------------------------------------
   TIME STEP LENGTH  1626.3      27.105     0.45175     1.88230E-02 5.15346E-05
 STRESS PERIOD TIME  11619.      193.65      3.2276     0.13448     3.68192E-04
         TOTAL TIME  11619.      193.65      3.2276     0.13448     3.68192E-04
1
 
 SOLVING FOR HEAD 
     3 CALLS TO PCG ROUTINE FOR TIME STEP  12 IN STRESS PERIOD    1
    15 TOTAL ITERATIONS

 HEAD/DRAWDOWN PRINTOUT FLAG = 0     TOTAL BUDGET PRINTOUT FLAG = 1
 CELL-BY-CELL FLOW TERM FLAG = 0
 REUSING PREVIOUS VALUES OF IOFLG

 SAVING SATURATED THICKNESS AND FLOW TERMS ON UNIT  333 FOR MT3DMS
 BY THE LINK-MT3DMS PACKAGE V6.2 AT TIME STEP   12, STRESS PERIOD    1

1
  VOLUMETRIC BUDGET FOR ENTIRE MODEL AT END OF TIME STEP 12 IN STRESS PERIOD   1
  ------------------------------------------------------------------------------

     CUMULATIVE VOLUMES      L**3       RATES FOR THIS TIME STEP      L**3/T
     ------------------                 ------------------------

           IN:                                      IN:
           ---                                      ---
             STORAGE =        1959.0059               STORAGE =           0.1377
       CONSTANT HEAD =       6.1484E-03         CONSTANT HEAD =       6.0748E-07
                 MNW =        1957.4757                   MNW =           0.1375

            TOTAL IN =        3916.4878              TOTAL IN =           0.2753

          OUT:                                     OUT:
          ----                                     ----
             STORAGE =        1957.7554               STORAGE =           0.1376
       CONSTANT HEAD =       2.9799E-02         CONSTANT HEAD =       2.1161E-06
                 MNW =        1957.4740                   MNW =           0.1375

           TOTAL OUT =        3915.2593             TOTAL OUT =           0.2752

            IN - OUT =           1.2285              IN - OUT =       1.0077E-04

 PERCENT DISCREPANCY =           0.03     PERCENT DISCREPANCY =           0.04






          TIME SUMMARY AT END OF TIME STEP  12 IN STRESS PERIOD    1
                    SECONDS     MINUTES      HOURS       DAYS        YEARS
                    -----------------------------------------------------------
   TIME STEP LENGTH  1788.9      29.816     0.49693     2.07053E-02 5.66880E-05
 STRESS PERIOD TIME  13408.      223.47      3.7245     0.15519     4.24880E-04
         TOTAL TIME  13408.      223.47      3.7245     0.15519     4.24880E-04
1
 
 SOLVING FOR HEAD 
     3 CALLS TO PCG ROUTINE FOR TIME STEP  13 IN STRESS PERIOD    1
    15 TOTAL ITERATIONS

 HEAD/DRAWDOWN PRINTOUT FLAG = 0     TOTAL BUDGET PRINTOUT FLAG = 1
 CELL-BY-CELL FLOW TERM FLAG = 0
 REUSING PREVIOUS VALUES OF IOFLG

 SAVING SATURATED THICKNESS AND FLOW TERMS ON UNIT  333 FOR MT3DMS
 BY THE LINK-MT3DMS PACKAGE V6.2 AT TIME STEP   13, STRESS PERIOD    1

1
  VOLUMETRIC BUDGET FOR ENTIRE MODEL AT END OF TIME STEP 13 IN STRESS PERIOD   1
  ------------------------------------------------------------------------------

     CUMULATIVE VOLUMES      L**3       RATES FOR THIS TIME STEP      L**3/T
     ------------------                 ------------------------

           IN:                                      IN:
           ---                                      ---
             STORAGE =        2227.7886               STORAGE =           0.1366
       CONSTANT HEAD =       8.5067E-03         CONSTANT HEAD =       1.1984E-06
                 MNW =        2225.9148                   MNW =           0.1364

            TOTAL IN =        4453.7119              TOTAL IN =           0.2730

          OUT:                                     OUT:
          ----                                     ----
             STORAGE =        2226.3762               STORAGE =           0.1365
       CONSTANT HEAD =       3.3827E-02         CONSTANT HEAD =       2.0469E-06
                 MNW =        2225.9126                   MNW =           0.1364

           TOTAL OUT =        4452.3228             TOTAL OUT =           0.2729

            IN - OUT =           1.3892              IN - OUT =       8.1719E-05

 PERCENT DISCREPANCY =           0.03     PERCENT DISCREPANCY =           0.03






          TIME SUMMARY AT END OF TIME STEP  13 IN STRESS PERIOD    1
                    SECONDS     MINUTES      HOURS       DAYS        YEARS
                    -----------------------------------------------------------
   TIME STEP LENGTH  1967.8      32.797     0.54662     2.27758E-02 6.23569E-05
 STRESS PERIOD TIME  15376.      256.27      4.2711     0.17796     4.87237E-04
         TOTAL TIME  15376.      256.27      4.2711     0.17796     4.87237E-04
1
 
 SOLVING FOR HEAD 
     3 CALLS TO PCG ROUTINE FOR TIME STEP  14 IN STRESS PERIOD    1
    16 TOTAL ITERATIONS

 HEAD/DRAWDOWN PRINTOUT FLAG = 0     TOTAL BUDGET PRINTOUT FLAG = 1
 CELL-BY-CELL FLOW TERM FLAG = 0
 REUSING PREVIOUS VALUES OF IOFLG

 SAVING SATURATED THICKNESS AND FLOW TERMS ON UNIT  333 FOR MT3DMS
 BY THE LINK-MT3DMS PACKAGE V6.2 AT TIME STEP   14, STRESS PERIOD    1

1
  VOLUMETRIC BUDGET FOR ENTIRE MODEL AT END OF TIME STEP 14 IN STRESS PERIOD   1
  ------------------------------------------------------------------------------

     CUMULATIVE VOLUMES      L**3       RATES FOR THIS TIME STEP      L**3/T
     ------------------                 ------------------------

           IN:                                      IN:
           ---                                      ---
             STORAGE =        2521.1472               STORAGE =           0.1355
       CONSTANT HEAD =       1.6876E-02         CONSTANT HEAD =       3.8664E-06
                 MNW =        2518.8960                   MNW =           0.1354

            TOTAL IN =        5040.0601              TOTAL IN =           0.2709

          OUT:                                     OUT:
          ----                                     ----
             STORAGE =        2519.5312               STORAGE =           0.1354
       CONSTANT HEAD =       3.5424E-02         CONSTANT HEAD =       7.3794E-07
                 MNW =        2518.8955                   MNW =           0.1354

           TOTAL OUT =        5038.4624             TOTAL OUT =           0.2708

            IN - OUT =           1.5979              IN - OUT =       9.6469E-05

 PERCENT DISCREPANCY =           0.03     PERCENT DISCREPANCY =           0.04






          TIME SUMMARY AT END OF TIME STEP  14 IN STRESS PERIOD    1
                    SECONDS     MINUTES      HOURS       DAYS        YEARS
                    -----------------------------------------------------------
   TIME STEP LENGTH  2164.6      36.077     0.60128     2.50534E-02 6.85925E-05
 STRESS PERIOD TIME  17541.      292.34      4.8724     0.20302     5.55830E-04
         TOTAL TIME  17541.      292.34      4.8724     0.20302     5.55830E-04
1
 
 SOLVING FOR HEAD 
     3 CALLS TO PCG ROUTINE FOR TIME STEP  15 IN STRESS PERIOD    1
    16 TOTAL ITERATIONS

 HEAD/DRAWDOWN PRINTOUT FLAG = 0     TOTAL BUDGET PRINTOUT FLAG = 1
 CELL-BY-CELL FLOW TERM FLAG = 0
 REUSING PREVIOUS VALUES OF IOFLG

 SAVING SATURATED THICKNESS AND FLOW TERMS ON UNIT  333 FOR MT3DMS
 BY THE LINK-MT3DMS PACKAGE V6.2 AT TIME STEP   15, STRESS PERIOD    1

1
  VOLUMETRIC BUDGET FOR ENTIRE MODEL AT END OF TIME STEP 15 IN STRESS PERIOD   1
  ------------------------------------------------------------------------------

     CUMULATIVE VOLUMES      L**3       RATES FOR THIS TIME STEP      L**3/T
     ------------------                 ------------------------

           IN:                                      IN:
           ---                                      ---
             STORAGE =        2841.4004               STORAGE =           0.1345
       CONSTANT HEAD =       4.0590E-02         CONSTANT HEAD =       9.9594E-06
                 MNW =        2838.7729                   MNW =           0.1343

            TOTAL IN =        5680.2139              TOTAL IN =           0.2689

          OUT:                                     OUT:
          ----                                     ----
             STORAGE =        2839.6006               STORAGE =           0.1344
       CONSTANT HEAD =       3.5753E-02         CONSTANT HEAD =       1.3801E-07
                 MNW =        2838.7727                   MNW =           0.1343

           TOTAL OUT =        5678.4092             TOTAL OUT =           0.2688

            IN - OUT =           1.8049              IN - OUT =       8.6875E-05

 PERCENT DISCREPANCY =           0.03     PERCENT DISCREPANCY =           0.03






          TIME SUMMARY AT END OF TIME STEP  15 IN STRESS PERIOD    1
                    SECONDS     MINUTES      HOURS       DAYS        YEARS
                    -----------------------------------------------------------
   TIME STEP LENGTH  2381.1      39.685     0.66141     2.75588E-02 7.54518E-05
 STRESS PERIOD TIME  19922.      332.03      5.5338     0.23058     6.31282E-04
         TOTAL TIME  19922.      332.03      5.5338     0.23058     6.31282E-04
1
 
 SOLVING FOR HEAD 
     3 CALLS TO PCG ROUTINE FOR TIME STEP  16 IN STRESS PERIOD    1
    15 TOTAL ITERATIONS

 HEAD/DRAWDOWN PRINTOUT FLAG = 0     TOTAL BUDGET PRINTOUT FLAG = 1
 CELL-BY-CELL FLOW TERM FLAG = 0
 REUSING PREVIOUS VALUES OF IOFLG

 SAVING SATURATED THICKNESS AND FLOW TERMS ON UNIT  333 FOR MT3DMS
 BY THE LINK-MT3DMS PACKAGE V6.2 AT TIME STEP   16, STRESS PERIOD    1

1
  VOLUMETRIC BUDGET FOR ENTIRE MODEL AT END OF TIME STEP 16 IN STRESS PERIOD   1
  ------------------------------------------------------------------------------

     CUMULATIVE VOLUMES      L**3       RATES FOR THIS TIME STEP      L**3/T
     ------------------                 ------------------------

           IN:                                      IN:
           ---                                      ---
             STORAGE =        3191.1040               STORAGE =           0.1335
       CONSTANT HEAD =           0.1033         CONSTANT HEAD =       2.3958E-05
                 MNW =        3188.1145                   MNW =           0.1334

            TOTAL IN =        6379.3218              TOTAL IN =           0.2669

          OUT:                                     OUT:
          ----                                     ----
             STORAGE =        3189.1611               STORAGE =           0.1335
       CONSTANT HEAD =       3.6121E-02         CONSTANT HEAD =       1.4059E-07
                 MNW =        3188.1145                   MNW =           0.1334

           TOTAL OUT =        6377.3115             TOTAL OUT =           0.2668

            IN - OUT =           2.0101              IN - OUT =       7.8341E-05

 PERCENT DISCREPANCY =           0.03     PERCENT DISCREPANCY =           0.03






          TIME SUMMARY AT END OF TIME STEP  16 IN STRESS PERIOD    1
                    SECONDS     MINUTES      HOURS       DAYS        YEARS
                    -----------------------------------------------------------
   TIME STEP LENGTH  2619.2      43.653     0.72755     3.03146E-02 8.29970E-05
 STRESS PERIOD TIME  22541.      375.68      6.2614     0.26089     7.14279E-04
         TOTAL TIME  22541.      375.68      6.2614     0.26089     7.14279E-04
1
 
 SOLVING FOR HEAD 
     3 CALLS TO PCG ROUTINE FOR TIME STEP  17 IN STRESS PERIOD    1
    15 TOTAL ITERATIONS

 HEAD/DRAWDOWN PRINTOUT FLAG = 0     TOTAL BUDGET PRINTOUT FLAG = 1
 CELL-BY-CELL FLOW TERM FLAG = 0
 REUSING PREVIOUS VALUES OF IOFLG

 SAVING SATURATED THICKNESS AND FLOW TERMS ON UNIT  333 FOR MT3DMS
 BY THE LINK-MT3DMS PACKAGE V6.2 AT TIME STEP   17, STRESS PERIOD    1

1
  VOLUMETRIC BUDGET FOR ENTIRE MODEL AT END OF TIME STEP 17 IN STRESS PERIOD   1
  ------------------------------------------------------------------------------

     CUMULATIVE VOLUMES      L**3       RATES FOR THIS TIME STEP      L**3/T
     ------------------                 ------------------------

           IN:                                      IN:
           ---                                      ---
             STORAGE =        3573.1555               STORAGE =           0.1326
       CONSTANT HEAD =           0.2489         CONSTANT HEAD =       5.0511E-05
                 MNW =        3569.7175                   MNW =           0.1325

            TOTAL IN =        7143.1221              TOTAL IN =           0.2651

          OUT:                                     OUT:
          ----                                     ----
             STORAGE =        3571.1384               STORAGE =           0.1326
       CONSTANT HEAD =       3.6442E-02         CONSTANT HEAD =       1.1129E-07
                 MNW =        3569.7173                   MNW =           0.1325

           TOTAL OUT =        7140.8921             TOTAL OUT =           0.2650

            IN - OUT =           2.2298              IN - OUT =       7.6283E-05

 PERCENT DISCREPANCY =           0.03     PERCENT DISCREPANCY =           0.03






          TIME SUMMARY AT END OF TIME STEP  17 IN STRESS PERIOD    1
                    SECONDS     MINUTES      HOURS       DAYS        YEARS
                    -----------------------------------------------------------
   TIME STEP LENGTH  2881.1      48.018     0.80031     3.33461E-02 9.12967E-05
 STRESS PERIOD TIME  25422.      423.70      7.0617     0.29424     8.05575E-04
         TOTAL TIME  25422.      423.70      7.0617     0.29424     8.05575E-04
1
 
 SOLVING FOR HEAD 
     3 CALLS TO PCG ROUTINE FOR TIME STEP  18 IN STRESS PERIOD    1
    15 TOTAL ITERATIONS

 HEAD/DRAWDOWN PRINTOUT FLAG = 0     TOTAL BUDGET PRINTOUT FLAG = 1
 CELL-BY-CELL FLOW TERM FLAG = 0
 REUSING PREVIOUS VALUES OF IOFLG

 SAVING SATURATED THICKNESS AND FLOW TERMS ON UNIT  333 FOR MT3DMS
 BY THE LINK-MT3DMS PACKAGE V6.2 AT TIME STEP   18, STRESS PERIOD    1

1
  VOLUMETRIC BUDGET FOR ENTIRE MODEL AT END OF TIME STEP 18 IN STRESS PERIOD   1
  ------------------------------------------------------------------------------

     CUMULATIVE VOLUMES      L**3       RATES FOR THIS TIME STEP      L**3/T
     ------------------                 ------------------------

           IN:                                      IN:
           ---                                      ---
             STORAGE =        3990.3137               STORAGE =           0.1316
       CONSTANT HEAD =           0.5594         CONSTANT HEAD =       9.7972E-05
                 MNW =        3986.6802                   MNW =           0.1316

            TOTAL IN =        7977.5532              TOTAL IN =           0.2633

          OUT:                                     OUT:
          ----                                     ----
             STORAGE =        3988.3494               STORAGE =           0.1316
       CONSTANT HEAD =       3.6585E-02         CONSTANT HEAD =       4.5307E-08
                 MNW =        3986.6802                   MNW =           0.1316

           TOTAL OUT =        7975.0659             TOTAL OUT =           0.2632

            IN - OUT =           2.4871              IN - OUT =       8.1193E-05

 PERCENT DISCREPANCY =           0.03     PERCENT DISCREPANCY =           0.03






          TIME SUMMARY AT END OF TIME STEP  18 IN STRESS PERIOD    1
                    SECONDS     MINUTES      HOURS       DAYS        YEARS
                    -----------------------------------------------------------
   TIME STEP LENGTH  3169.2      52.820     0.88034     3.66807E-02 1.00426E-04
 STRESS PERIOD TIME  28591.      476.52      7.9420     0.33092     9.06002E-04
         TOTAL TIME  28591.      476.52      7.9420     0.33092     9.06002E-04
1
 
 SOLVING FOR HEAD 
     3 CALLS TO PCG ROUTINE FOR TIME STEP  19 IN STRESS PERIOD    1
    14 TOTAL ITERATIONS

 HEAD/DRAWDOWN PRINTOUT FLAG = 0     TOTAL BUDGET PRINTOUT FLAG = 1
 CELL-BY-CELL FLOW TERM FLAG = 0
 REUSING PREVIOUS VALUES OF IOFLG

 SAVING SATURATED THICKNESS AND FLOW TERMS ON UNIT  333 FOR MT3DMS
 BY THE LINK-MT3DMS PACKAGE V6.2 AT TIME STEP   19, STRESS PERIOD    1

1
  VOLUMETRIC BUDGET FOR ENTIRE MODEL AT END OF TIME STEP 19 IN STRESS PERIOD   1
  ------------------------------------------------------------------------------

     CUMULATIVE VOLUMES      L**3       RATES FOR THIS TIME STEP      L**3/T
     ------------------                 ------------------------

           IN:                                      IN:
           ---                                      ---
             STORAGE =        4445.8535               STORAGE =           0.1307
       CONSTANT HEAD =           1.1996         CONSTANT HEAD =       1.8364E-04
                 MNW =        4442.3506                   MNW =           0.1307

            TOTAL IN =        8889.4033              TOTAL IN =           0.2616

          OUT:                                     OUT:
          ----                                     ----
             STORAGE =        4444.3081               STORAGE =           0.1308
       CONSTANT HEAD =       3.6996E-02         CONSTANT HEAD =       1.1772E-07
                 MNW =        4442.3506                   MNW =           0.1307

           TOTAL OUT =        8886.6953             TOTAL OUT =           0.2615

            IN - OUT =           2.7080              IN - OUT =       6.3343E-05

 PERCENT DISCREPANCY =           0.03     PERCENT DISCREPANCY =           0.02






          TIME SUMMARY AT END OF TIME STEP  19 IN STRESS PERIOD    1
                    SECONDS     MINUTES      HOURS       DAYS        YEARS
                    -----------------------------------------------------------
   TIME STEP LENGTH  3486.1      58.102     0.96837     4.03488E-02 1.10469E-04
 STRESS PERIOD TIME  32077.      534.62      8.9104     0.37127     1.01647E-03
         TOTAL TIME  32077.      534.62      8.9104     0.37127     1.01647E-03
1
 
 SOLVING FOR HEAD 
     3 CALLS TO PCG ROUTINE FOR TIME STEP  20 IN STRESS PERIOD    1
    15 TOTAL ITERATIONS

 HEAD/DRAWDOWN PRINTOUT FLAG = 0     TOTAL BUDGET PRINTOUT FLAG = 1
 CELL-BY-CELL FLOW TERM FLAG = 0
 REUSING PREVIOUS VALUES OF IOFLG

 SAVING SATURATED THICKNESS AND FLOW TERMS ON UNIT  333 FOR MT3DMS
 BY THE LINK-MT3DMS PACKAGE V6.2 AT TIME STEP   20, STRESS PERIOD    1

1
  VOLUMETRIC BUDGET FOR ENTIRE MODEL AT END OF TIME STEP 20 IN STRESS PERIOD   1
  ------------------------------------------------------------------------------

     CUMULATIVE VOLUMES      L**3       RATES FOR THIS TIME STEP      L**3/T
     ------------------                 ------------------------

           IN:                                      IN:
           ---                                      ---
             STORAGE =        4943.1953               STORAGE =           0.1297
       CONSTANT HEAD =           2.4672         CONSTANT HEAD =       3.3058E-04
                 MNW =        4940.4082                   MNW =           0.1299

            TOTAL IN =        9886.0703              TOTAL IN =           0.2599

          OUT:                                     OUT:
          ----                                     ----
             STORAGE =        4942.6724               STORAGE =           0.1300
       CONSTANT HEAD =       3.7105E-02         CONSTANT HEAD =       2.8584E-08
                 MNW =        4940.4077                   MNW =           0.1299

           TOTAL OUT =        9883.1172             TOTAL OUT =           0.2598

            IN - OUT =           2.9536              IN - OUT =       6.4056E-05

 PERCENT DISCREPANCY =           0.03     PERCENT DISCREPANCY =           0.02






          TIME SUMMARY AT END OF TIME STEP  20 IN STRESS PERIOD    1
                    SECONDS     MINUTES      HOURS       DAYS        YEARS
                    -----------------------------------------------------------
   TIME STEP LENGTH  3834.7      63.912      1.0652     4.43837E-02 1.21516E-04
 STRESS PERIOD TIME  35912.      598.54      9.9756     0.41565     1.13799E-03
         TOTAL TIME  35912.      598.54      9.9756     0.41565     1.13799E-03
1
 
 SOLVING FOR HEAD 
     3 CALLS TO PCG ROUTINE FOR TIME STEP  21 IN STRESS PERIOD    1
    16 TOTAL ITERATIONS

 HEAD/DRAWDOWN PRINTOUT FLAG = 0     TOTAL BUDGET PRINTOUT FLAG = 1
 CELL-BY-CELL FLOW TERM FLAG = 0
 REUSING PREVIOUS VALUES OF IOFLG

 SAVING SATURATED THICKNESS AND FLOW TERMS ON UNIT  333 FOR MT3DMS
 BY THE LINK-MT3DMS PACKAGE V6.2 AT TIME STEP   21, STRESS PERIOD    1

1
  VOLUMETRIC BUDGET FOR ENTIRE MODEL AT END OF TIME STEP 21 IN STRESS PERIOD   1
  ------------------------------------------------------------------------------

     CUMULATIVE VOLUMES      L**3       RATES FOR THIS TIME STEP      L**3/T
     ------------------                 ------------------------

           IN:                                      IN:
           ---                                      ---
             STORAGE =        5485.8799               STORAGE =           0.1287
       CONSTANT HEAD =           4.8647         CONSTANT HEAD =       5.6836E-04
                 MNW =        5484.8765                   MNW =           0.1291

            TOTAL IN =       10975.6211              TOTAL IN =           0.2583

          OUT:                                     OUT:
          ----                                     ----
             STORAGE =        5487.4746               STORAGE =           0.1292
       CONSTANT HEAD =       3.7203E-02         CONSTANT HEAD =       2.3145E-08
                 MNW =        5484.8784                   MNW =           0.1291

           TOTAL OUT =       10972.3906             TOTAL OUT =           0.2582

            IN - OUT =           3.2308              IN - OUT =       6.5569E-05

 PERCENT DISCREPANCY =           0.03     PERCENT DISCREPANCY =           0.03






          TIME SUMMARY AT END OF TIME STEP  21 IN STRESS PERIOD    1
                    SECONDS     MINUTES      HOURS       DAYS        YEARS
                    -----------------------------------------------------------
   TIME STEP LENGTH  4218.2      70.304      1.1717     4.88220E-02 1.33667E-04
 STRESS PERIOD TIME  40130.      668.84      11.147     0.46447     1.27165E-03
         TOTAL TIME  40130.      668.84      11.147     0.46447     1.27165E-03
1
 
 SOLVING FOR HEAD 
     3 CALLS TO PCG ROUTINE FOR TIME STEP  22 IN STRESS PERIOD    1
    16 TOTAL ITERATIONS

 HEAD/DRAWDOWN PRINTOUT FLAG = 0     TOTAL BUDGET PRINTOUT FLAG = 1
 CELL-BY-CELL FLOW TERM FLAG = 0
 REUSING PREVIOUS VALUES OF IOFLG

 SAVING SATURATED THICKNESS AND FLOW TERMS ON UNIT  333 FOR MT3DMS
 BY THE LINK-MT3DMS PACKAGE V6.2 AT TIME STEP   22, STRESS PERIOD    1

1
  VOLUMETRIC BUDGET FOR ENTIRE MODEL AT END OF TIME STEP 22 IN STRESS PERIOD   1
  ------------------------------------------------------------------------------

     CUMULATIVE VOLUMES      L**3       RATES FOR THIS TIME STEP      L**3/T
     ------------------                 ------------------------

           IN:                                      IN:
           ---                                      ---
             STORAGE =        6077.4644               STORAGE =           0.1275
       CONSTANT HEAD =           9.2214         CONSTANT HEAD =       9.3893E-04
                 MNW =        6080.1646                   MNW =           0.1283

            TOTAL IN =       12166.8506              TOTAL IN =           0.2567

          OUT:                                     OUT:
          ----                                     ----
             STORAGE =        6083.1274               STORAGE =           0.1284
       CONSTANT HEAD =       3.7620E-02         CONSTANT HEAD =       8.9946E-08
                 MNW =        6080.1636                   MNW =           0.1283

           TOTAL OUT =       12163.3291             TOTAL OUT =           0.2567

            IN - OUT =           3.5216              IN - OUT =       6.2683E-05

 PERCENT DISCREPANCY =           0.03     PERCENT DISCREPANCY =           0.02






          TIME SUMMARY AT END OF TIME STEP  22 IN STRESS PERIOD    1
                    SECONDS     MINUTES      HOURS       DAYS        YEARS
                    -----------------------------------------------------------
   TIME STEP LENGTH  4640.0      77.334      1.2889     5.37043E-02 1.47034E-04
 STRESS PERIOD TIME  44770.      746.17      12.436     0.51818     1.41869E-03
         TOTAL TIME  44770.      746.17      12.436     0.51818     1.41869E-03
1
 
 SOLVING FOR HEAD 
     3 CALLS TO PCG ROUTINE FOR TIME STEP  23 IN STRESS PERIOD    1
    16 TOTAL ITERATIONS

 HEAD/DRAWDOWN PRINTOUT FLAG = 0     TOTAL BUDGET PRINTOUT FLAG = 1
 CELL-BY-CELL FLOW TERM FLAG = 0
 REUSING PREVIOUS VALUES OF IOFLG

 SAVING SATURATED THICKNESS AND FLOW TERMS ON UNIT  333 FOR MT3DMS
 BY THE LINK-MT3DMS PACKAGE V6.2 AT TIME STEP   23, STRESS PERIOD    1

1
  VOLUMETRIC BUDGET FOR ENTIRE MODEL AT END OF TIME STEP 23 IN STRESS PERIOD   1
  ------------------------------------------------------------------------------

     CUMULATIVE VOLUMES      L**3       RATES FOR THIS TIME STEP      L**3/T
     ------------------                 ------------------------

           IN:                                      IN:
           ---                                      ---
             STORAGE =        6721.4980               STORAGE =           0.1262
       CONSTANT HEAD =          16.8274         CONSTANT HEAD =       1.4902E-03
                 MNW =        6731.0913                   MNW =           0.1275

            TOTAL IN =       13469.4170              TOTAL IN =           0.2552

          OUT:                                     OUT:
          ----                                     ----
             STORAGE =        6734.4600               STORAGE =           0.1276
       CONSTANT HEAD =       3.8455E-02         CONSTANT HEAD =       1.6359E-07
                 MNW =        6731.0884                   MNW =           0.1275

           TOTAL OUT =       13465.5869             TOTAL OUT =           0.2551

            IN - OUT =           3.8300              IN - OUT =       6.0324E-05

 PERCENT DISCREPANCY =           0.03     PERCENT DISCREPANCY =           0.02






          TIME SUMMARY AT END OF TIME STEP  23 IN STRESS PERIOD    1
                    SECONDS     MINUTES      HOURS       DAYS        YEARS
                    -----------------------------------------------------------
   TIME STEP LENGTH  5104.1      85.068      1.4178     5.90747E-02 1.61738E-04
 STRESS PERIOD TIME  49874.      831.24      13.854     0.57725     1.58043E-03
         TOTAL TIME  49874.      831.24      13.854     0.57725     1.58043E-03
1
 
 SOLVING FOR HEAD 
     3 CALLS TO PCG ROUTINE FOR TIME STEP  24 IN STRESS PERIOD    1
    16 TOTAL ITERATIONS

 HEAD/DRAWDOWN PRINTOUT FLAG = 0     TOTAL BUDGET PRINTOUT FLAG = 1
 CELL-BY-CELL FLOW TERM FLAG = 0
 REUSING PREVIOUS VALUES OF IOFLG

 SAVING SATURATED THICKNESS AND FLOW TERMS ON UNIT  333 FOR MT3DMS
 BY THE LINK-MT3DMS PACKAGE V6.2 AT TIME STEP   24, STRESS PERIOD    1

1
  VOLUMETRIC BUDGET FOR ENTIRE MODEL AT END OF TIME STEP 24 IN STRESS PERIOD   1
  ------------------------------------------------------------------------------

     CUMULATIVE VOLUMES      L**3       RATES FOR THIS TIME STEP      L**3/T
     ------------------                 ------------------------

           IN:                                      IN:
           ---                                      ---
             STORAGE =        7421.3228               STORAGE =           0.1246
       CONSTANT HEAD =          29.6431         CONSTANT HEAD =       2.2826E-03
                 MNW =        7442.9336                   MNW =           0.1268

            TOTAL IN =       14893.8994              TOTAL IN =           0.2537

          OUT:                                     OUT:
          ----                                     ----
             STORAGE =        7446.7539               STORAGE =           0.1269
       CONSTANT HEAD =       4.0592E-02         CONSTANT HEAD =       3.8059E-07
                 MNW =        7442.9355                   MNW =           0.1268

           TOTAL OUT =       14889.7305             TOTAL OUT =           0.2537

            IN - OUT =           4.1694              IN - OUT =       6.0414E-05

 PERCENT DISCREPANCY =           0.03     PERCENT DISCREPANCY =           0.02






          TIME SUMMARY AT END OF TIME STEP  24 IN STRESS PERIOD    1
                    SECONDS     MINUTES      HOURS       DAYS        YEARS
                    -----------------------------------------------------------
   TIME STEP LENGTH  5614.5      93.574      1.5596     6.49822E-02 1.77911E-04
 STRESS PERIOD TIME  55489.      924.82      15.414     0.64223     1.75834E-03
         TOTAL TIME  55489.      924.82      15.414     0.64223     1.75834E-03
1
 
 SOLVING FOR HEAD 
     3 CALLS TO PCG ROUTINE FOR TIME STEP  25 IN STRESS PERIOD    1
    16 TOTAL ITERATIONS

 HEAD/DRAWDOWN PRINTOUT FLAG = 0     TOTAL BUDGET PRINTOUT FLAG = 1
 CELL-BY-CELL FLOW TERM FLAG = 0
 REUSING PREVIOUS VALUES OF IOFLG

 SAVING SATURATED THICKNESS AND FLOW TERMS ON UNIT  333 FOR MT3DMS
 BY THE LINK-MT3DMS PACKAGE V6.2 AT TIME STEP   25, STRESS PERIOD    1

1
  VOLUMETRIC BUDGET FOR ENTIRE MODEL AT END OF TIME STEP 25 IN STRESS PERIOD   1
  ------------------------------------------------------------------------------

     CUMULATIVE VOLUMES      L**3       RATES FOR THIS TIME STEP      L**3/T
     ------------------                 ------------------------

           IN:                                      IN:
           ---                                      ---
             STORAGE =        8179.8481               STORAGE =           0.1228
       CONSTANT HEAD =          50.5122         CONSTANT HEAD =       3.3791E-03
                 MNW =        8221.4717                   MNW =           0.1261

            TOTAL IN =       16451.8320              TOTAL IN =           0.2523

          OUT:                                     OUT:
          ----                                     ----
             STORAGE =        8225.7881               STORAGE =           0.1261
       CONSTANT HEAD =       4.5992E-02         CONSTANT HEAD =       8.7440E-07
                 MNW =        8221.4717                   MNW =           0.1261

           TOTAL OUT =       16447.3066             TOTAL OUT =           0.2522

            IN - OUT =           4.5263              IN - OUT =       5.7806E-05

 PERCENT DISCREPANCY =           0.03     PERCENT DISCREPANCY =           0.02






          TIME SUMMARY AT END OF TIME STEP  25 IN STRESS PERIOD    1
                    SECONDS     MINUTES      HOURS       DAYS        YEARS
                    -----------------------------------------------------------
   TIME STEP LENGTH  6175.9      102.93      1.7155     7.14804E-02 1.95703E-04
 STRESS PERIOD TIME  61665.      1027.7      17.129     0.71371     1.95404E-03
         TOTAL TIME  61665.      1027.7      17.129     0.71371     1.95404E-03
1
 
 SOLVING FOR HEAD 
     3 CALLS TO PCG ROUTINE FOR TIME STEP  26 IN STRESS PERIOD    1
    16 TOTAL ITERATIONS

 HEAD/DRAWDOWN PRINTOUT FLAG = 0     TOTAL BUDGET PRINTOUT FLAG = 1
 CELL-BY-CELL FLOW TERM FLAG = 0
 REUSING PREVIOUS VALUES OF IOFLG

 SAVING SATURATED THICKNESS AND FLOW TERMS ON UNIT  333 FOR MT3DMS
 BY THE LINK-MT3DMS PACKAGE V6.2 AT TIME STEP   26, STRESS PERIOD    1

1
  VOLUMETRIC BUDGET FOR ENTIRE MODEL AT END OF TIME STEP 26 IN STRESS PERIOD   1
  ------------------------------------------------------------------------------

     CUMULATIVE VOLUMES      L**3       RATES FOR THIS TIME STEP      L**3/T
     ------------------                 ------------------------

           IN:                                      IN:
           ---                                      ---
             STORAGE =        8999.4492               STORAGE =           0.1206
       CONSTANT HEAD =          83.4148         CONSTANT HEAD =       4.8433E-03
                 MNW =        9073.0322                   MNW =           0.1253

            TOTAL IN =       18155.8965              TOTAL IN =           0.2508

          OUT:                                     OUT:
          ----                                     ----
             STORAGE =        9077.8770               STORAGE =           0.1254
       CONSTANT HEAD =       5.9669E-02         CONSTANT HEAD =       2.0132E-06
                 MNW =        9073.0322                   MNW =           0.1253

           TOTAL OUT =       18150.9688             TOTAL OUT =           0.2508

            IN - OUT =           4.9274              IN - OUT =       5.8982E-05

 PERCENT DISCREPANCY =           0.03     PERCENT DISCREPANCY =           0.02






          TIME SUMMARY AT END OF TIME STEP  26 IN STRESS PERIOD    1
                    SECONDS     MINUTES      HOURS       DAYS        YEARS
                    -----------------------------------------------------------
   TIME STEP LENGTH  6793.5      113.22      1.8871     7.86284E-02 2.15273E-04
 STRESS PERIOD TIME  68458.      1141.0      19.016     0.79234     2.16931E-03
         TOTAL TIME  68458.      1141.0      19.016     0.79234     2.16931E-03
1
 
 SOLVING FOR HEAD 
     3 CALLS TO PCG ROUTINE FOR TIME STEP  27 IN STRESS PERIOD    1
    13 TOTAL ITERATIONS

 HEAD/DRAWDOWN PRINTOUT FLAG = 0     TOTAL BUDGET PRINTOUT FLAG = 1
 CELL-BY-CELL FLOW TERM FLAG = 0
 REUSING PREVIOUS VALUES OF IOFLG

 SAVING SATURATED THICKNESS AND FLOW TERMS ON UNIT  333 FOR MT3DMS
 BY THE LINK-MT3DMS PACKAGE V6.2 AT TIME STEP   27, STRESS PERIOD    1

1
  VOLUMETRIC BUDGET FOR ENTIRE MODEL AT END OF TIME STEP 27 IN STRESS PERIOD   1
  ------------------------------------------------------------------------------

     CUMULATIVE VOLUMES      L**3       RATES FOR THIS TIME STEP      L**3/T
     ------------------                 ------------------------

           IN:                                      IN:
           ---                                      ---
             STORAGE =        9881.8271               STORAGE =           0.1181
       CONSTANT HEAD =         133.7584         CONSTANT HEAD =       6.7369E-03
                 MNW =       10004.5400                   MNW =           0.1247

            TOTAL IN =       20020.1250              TOTAL IN =           0.2495

          OUT:                                     OUT:
          ----                                     ----
             STORAGE =       10009.9512               STORAGE =           0.1247
       CONSTANT HEAD =       9.3088E-02         CONSTANT HEAD =       4.4721E-06
                 MNW =       10004.5391                   MNW =           0.1247

           TOTAL OUT =       20014.5840             TOTAL OUT =           0.2494

            IN - OUT =           5.5423              IN - OUT =       8.2292E-05

 PERCENT DISCREPANCY =           0.03     PERCENT DISCREPANCY =           0.03






          TIME SUMMARY AT END OF TIME STEP  27 IN STRESS PERIOD    1
                    SECONDS     MINUTES      HOURS       DAYS        YEARS
                    -----------------------------------------------------------
   TIME STEP LENGTH  7472.8      124.55      2.0758     8.64912E-02 2.36800E-04
 STRESS PERIOD TIME  75931.      1265.5      21.092     0.87883     2.40611E-03
         TOTAL TIME  75931.      1265.5      21.092     0.87883     2.40611E-03
1
 
 SOLVING FOR HEAD 
     3 CALLS TO PCG ROUTINE FOR TIME STEP  28 IN STRESS PERIOD    1
    15 TOTAL ITERATIONS

 HEAD/DRAWDOWN PRINTOUT FLAG = 0     TOTAL BUDGET PRINTOUT FLAG = 1
 CELL-BY-CELL FLOW TERM FLAG = 0
 REUSING PREVIOUS VALUES OF IOFLG

 SAVING SATURATED THICKNESS AND FLOW TERMS ON UNIT  333 FOR MT3DMS
 BY THE LINK-MT3DMS PACKAGE V6.2 AT TIME STEP   28, STRESS PERIOD    1

1
  VOLUMETRIC BUDGET FOR ENTIRE MODEL AT END OF TIME STEP 28 IN STRESS PERIOD   1
  ------------------------------------------------------------------------------

     CUMULATIVE VOLUMES      L**3       RATES FOR THIS TIME STEP      L**3/T
     ------------------                 ------------------------

           IN:                                      IN:
           ---                                      ---
             STORAGE =       10827.0635               STORAGE =           0.1150
       CONSTANT HEAD =         208.6758         CONSTANT HEAD =       9.1139E-03
                 MNW =       11023.5820                   MNW =           0.1240

            TOTAL IN =       22059.3223              TOTAL IN =           0.2481

          OUT:                                     OUT:
          ----                                     ----
             STORAGE =       11029.5713               STORAGE =           0.1240
       CONSTANT HEAD =           0.1729         CONSTANT HEAD =       9.7104E-06
                 MNW =       11023.5801                   MNW =           0.1240

           TOTAL OUT =       22053.3242             TOTAL OUT =           0.2480

            IN - OUT =           5.9971              IN - OUT =       5.5398E-05

 PERCENT DISCREPANCY =           0.03     PERCENT DISCREPANCY =           0.02






          TIME SUMMARY AT END OF TIME STEP  28 IN STRESS PERIOD    1
                    SECONDS     MINUTES      HOURS       DAYS        YEARS
                    -----------------------------------------------------------
   TIME STEP LENGTH  8220.1      137.00      2.2834     9.51404E-02 2.60480E-04
 STRESS PERIOD TIME  84151.      1402.5      23.375     0.97397     2.66659E-03
         TOTAL TIME  84151.      1402.5      23.375     0.97397     2.66659E-03
1
 
 SOLVING FOR HEAD 
     3 CALLS TO PCG ROUTINE FOR TIME STEP  29 IN STRESS PERIOD    1
    14 TOTAL ITERATIONS

 HEAD/DRAWDOWN PRINTOUT FLAG = 0     TOTAL BUDGET PRINTOUT FLAG = 1
 CELL-BY-CELL FLOW TERM FLAG = 0
 REUSING PREVIOUS VALUES OF IOFLG

 SAVING SATURATED THICKNESS AND FLOW TERMS ON UNIT  333 FOR MT3DMS
 BY THE LINK-MT3DMS PACKAGE V6.2 AT TIME STEP   29, STRESS PERIOD    1

1
  VOLUMETRIC BUDGET FOR ENTIRE MODEL AT END OF TIME STEP 29 IN STRESS PERIOD   1
  ------------------------------------------------------------------------------

     CUMULATIVE VOLUMES      L**3       RATES FOR THIS TIME STEP      L**3/T
     ------------------                 ------------------------

           IN:                                      IN:
           ---                                      ---
             STORAGE =       11834.8984               STORAGE =           0.1115
       CONSTANT HEAD =         317.3003         CONSTANT HEAD =       1.2013E-02
                 MNW =       12138.4150                   MNW =           0.1233

            TOTAL IN =       24290.6133              TOTAL IN =           0.2468

          OUT:                                     OUT:
          ----                                     ----
             STORAGE =       12145.3223               STORAGE =           0.1234
       CONSTANT HEAD =           0.3528         CONSTANT HEAD =       1.9897E-05
                 MNW =       12138.4160                   MNW =           0.1233

           TOTAL OUT =       24284.0918             TOTAL OUT =           0.2467

            IN - OUT =           6.5227              IN - OUT =       5.8184E-05

 PERCENT DISCREPANCY =           0.03     PERCENT DISCREPANCY =           0.02






          TIME SUMMARY AT END OF TIME STEP  29 IN STRESS PERIOD    1
                    SECONDS     MINUTES      HOURS       DAYS        YEARS
                    -----------------------------------------------------------
   TIME STEP LENGTH  9042.1      150.70      2.5117     0.10465     2.86528E-04
 STRESS PERIOD TIME  93193.      1553.2      25.887      1.0786     2.95312E-03
         TOTAL TIME  93193.      1553.2      25.887      1.0786     2.95312E-03
1
 
 SOLVING FOR HEAD 
     3 CALLS TO PCG ROUTINE FOR TIME STEP  30 IN STRESS PERIOD    1
    15 TOTAL ITERATIONS

 HEAD/DRAWDOWN PRINTOUT FLAG = 0     TOTAL BUDGET PRINTOUT FLAG = 1
 CELL-BY-CELL FLOW TERM FLAG = 0
 REUSING PREVIOUS VALUES OF IOFLG

 SAVING SATURATED THICKNESS AND FLOW TERMS ON UNIT  333 FOR MT3DMS
 BY THE LINK-MT3DMS PACKAGE V6.2 AT TIME STEP   30, STRESS PERIOD    1

1
  VOLUMETRIC BUDGET FOR ENTIRE MODEL AT END OF TIME STEP 30 IN STRESS PERIOD   1
  ------------------------------------------------------------------------------

     CUMULATIVE VOLUMES      L**3       RATES FOR THIS TIME STEP      L**3/T
     ------------------                 ------------------------

           IN:                                      IN:
           ---                                      ---
             STORAGE =       12902.3467               STORAGE =           0.1073
       CONSTANT HEAD =         471.0155         CONSTANT HEAD =       1.5454E-02
                 MNW =       13358.2188                   MNW =           0.1226

            TOTAL IN =       26731.5801              TOTAL IN =           0.2454

          OUT:                                     OUT:
          ----                                     ----
             STORAGE =       13365.5547               STORAGE =           0.1227
       CONSTANT HEAD =           0.7408         CONSTANT HEAD =       3.9006E-05
                 MNW =       13358.2197                   MNW =           0.1226

           TOTAL OUT =       26724.5156             TOTAL OUT =           0.2454

            IN - OUT =           7.0657              IN - OUT =       5.4661E-05

 PERCENT DISCREPANCY =           0.03     PERCENT DISCREPANCY =           0.02






          TIME SUMMARY AT END OF TIME STEP  30 IN STRESS PERIOD    1
                    SECONDS     MINUTES      HOURS       DAYS        YEARS
                    -----------------------------------------------------------
   TIME STEP LENGTH  9946.4      165.77      2.7629     0.11512     3.15181E-04
 STRESS PERIOD TIME 1.03140E+05  1719.0      28.650      1.1937     3.26830E-03
         TOTAL TIME 1.03140E+05  1719.0      28.650      1.1937     3.26830E-03
1
 
 SOLVING FOR HEAD 
     3 CALLS TO PCG ROUTINE FOR TIME STEP  31 IN STRESS PERIOD    1
    14 TOTAL ITERATIONS

 HEAD/DRAWDOWN PRINTOUT FLAG = 0     TOTAL BUDGET PRINTOUT FLAG = 1
 CELL-BY-CELL FLOW TERM FLAG = 0
 REUSING PREVIOUS VALUES OF IOFLG

 SAVING SATURATED THICKNESS AND FLOW TERMS ON UNIT  333 FOR MT3DMS
 BY THE LINK-MT3DMS PACKAGE V6.2 AT TIME STEP   31, STRESS PERIOD    1

1
  VOLUMETRIC BUDGET FOR ENTIRE MODEL AT END OF TIME STEP 31 IN STRESS PERIOD   1
  ------------------------------------------------------------------------------

     CUMULATIVE VOLUMES      L**3       RATES FOR THIS TIME STEP      L**3/T
     ------------------                 ------------------------

           IN:                                      IN:
           ---                                      ---
             STORAGE =       14026.2646               STORAGE =           0.1027
       CONSTANT HEAD =         683.6989         CONSTANT HEAD =       1.9439E-02
                 MNW =       14692.8535                   MNW =           0.1220

            TOTAL IN =       29402.8164              TOTAL IN =           0.2441

          OUT:                                     OUT:
          ----                                     ----
             STORAGE =       14700.7148               STORAGE =           0.1220
       CONSTANT HEAD =           1.5411         CONSTANT HEAD =       7.3146E-05
                 MNW =       14692.8555                   MNW =           0.1220

           TOTAL OUT =       29395.1113             TOTAL OUT =           0.2441

            IN - OUT =           7.7056              IN - OUT =       5.8526E-05

 PERCENT DISCREPANCY =           0.03     PERCENT DISCREPANCY =           0.02






          TIME SUMMARY AT END OF TIME STEP  31 IN STRESS PERIOD    1
                    SECONDS     MINUTES      HOURS       DAYS        YEARS
                    -----------------------------------------------------------
   TIME STEP LENGTH  10941.      182.35      3.0392     0.12663     3.46699E-04
 STRESS PERIOD TIME 1.14081E+05  1901.3      31.689      1.3204     3.61500E-03
         TOTAL TIME 1.14081E+05  1901.3      31.689      1.3204     3.61500E-03
1
 
 SOLVING FOR HEAD 
     3 CALLS TO PCG ROUTINE FOR TIME STEP  32 IN STRESS PERIOD    1
    15 TOTAL ITERATIONS

 HEAD/DRAWDOWN PRINTOUT FLAG = 0     TOTAL BUDGET PRINTOUT FLAG = 1
 CELL-BY-CELL FLOW TERM FLAG = 0
 REUSING PREVIOUS VALUES OF IOFLG

 SAVING SATURATED THICKNESS AND FLOW TERMS ON UNIT  333 FOR MT3DMS
 BY THE LINK-MT3DMS PACKAGE V6.2 AT TIME STEP   32, STRESS PERIOD    1

1
  VOLUMETRIC BUDGET FOR ENTIRE MODEL AT END OF TIME STEP 32 IN STRESS PERIOD   1
  ------------------------------------------------------------------------------

     CUMULATIVE VOLUMES      L**3       RATES FOR THIS TIME STEP      L**3/T
     ------------------                 ------------------------

           IN:                                      IN:
           ---                                      ---
             STORAGE =       15200.2012               STORAGE =       9.7543E-02
       CONSTANT HEAD =         971.8810         CONSTANT HEAD =       2.3945E-02
                 MNW =       16153.3301                   MNW =           0.1214

            TOTAL IN =       32325.4121              TOTAL IN =           0.2428

          OUT:                                     OUT:
          ----                                     ----
             STORAGE =       16160.6201               STORAGE =           0.1213
       CONSTANT HEAD =           3.1351         CONSTANT HEAD =       1.3245E-04
                 MNW =       16153.3281                   MNW =           0.1214

           TOTAL OUT =       32317.0840             TOTAL OUT =           0.2428

            IN - OUT =           8.3290              IN - OUT =       5.1742E-05

 PERCENT DISCREPANCY =           0.03     PERCENT DISCREPANCY =           0.02






          TIME SUMMARY AT END OF TIME STEP  32 IN STRESS PERIOD    1
                    SECONDS     MINUTES      HOURS       DAYS        YEARS
                    -----------------------------------------------------------
   TIME STEP LENGTH  12035.      200.58      3.3431     0.13930     3.81369E-04
 STRESS PERIOD TIME 1.26116E+05  2101.9      35.032      1.4597     3.99637E-03
         TOTAL TIME 1.26116E+05  2101.9      35.032      1.4597     3.99637E-03
1
 
 SOLVING FOR HEAD 
     3 CALLS TO PCG ROUTINE FOR TIME STEP  33 IN STRESS PERIOD    1
    14 TOTAL ITERATIONS

 HEAD/DRAWDOWN PRINTOUT FLAG = 0     TOTAL BUDGET PRINTOUT FLAG = 1
 CELL-BY-CELL FLOW TERM FLAG = 0
 REUSING PREVIOUS VALUES OF IOFLG

 SAVING SATURATED THICKNESS AND FLOW TERMS ON UNIT  333 FOR MT3DMS
 BY THE LINK-MT3DMS PACKAGE V6.2 AT TIME STEP   33, STRESS PERIOD    1

1
  VOLUMETRIC BUDGET FOR ENTIRE MODEL AT END OF TIME STEP 33 IN STRESS PERIOD   1
  ------------------------------------------------------------------------------

     CUMULATIVE VOLUMES      L**3       RATES FOR THIS TIME STEP      L**3/T
     ------------------                 ------------------------

           IN:                                      IN:
           ---                                      ---
             STORAGE =       16417.6719               STORAGE =       9.1964E-02
       CONSTANT HEAD =        1354.8711         CONSTANT HEAD =       2.8930E-02
                 MNW =       17751.4805                   MNW =           0.1207

            TOTAL IN =       35524.0234              TOTAL IN =           0.2416

          OUT:                                     OUT:
          ----                                     ----
             STORAGE =       17757.3203               STORAGE =           0.1206
       CONSTANT HEAD =           6.1913         CONSTANT HEAD =       2.3085E-04
                 MNW =       17751.4668                   MNW =           0.1207

           TOTAL OUT =       35514.9766             TOTAL OUT =           0.2416

            IN - OUT =           9.0451              IN - OUT =       5.4005E-05

 PERCENT DISCREPANCY =           0.03     PERCENT DISCREPANCY =           0.02






          TIME SUMMARY AT END OF TIME STEP  33 IN STRESS PERIOD    1
                    SECONDS     MINUTES      HOURS       DAYS        YEARS
                    -----------------------------------------------------------
   TIME STEP LENGTH  13239.      220.64      3.6774     0.15322     4.19506E-04
 STRESS PERIOD TIME 1.39354E+05  2322.6      38.710      1.6129     4.41588E-03
         TOTAL TIME 1.39354E+05  2322.6      38.710      1.6129     4.41588E-03
1
 
 SOLVING FOR HEAD 
     3 CALLS TO PCG ROUTINE FOR TIME STEP  34 IN STRESS PERIOD    1
    15 TOTAL ITERATIONS

 HEAD/DRAWDOWN PRINTOUT FLAG = 0     TOTAL BUDGET PRINTOUT FLAG = 1
 CELL-BY-CELL FLOW TERM FLAG = 0
 REUSING PREVIOUS VALUES OF IOFLG

 SAVING SATURATED THICKNESS AND FLOW TERMS ON UNIT  333 FOR MT3DMS
 BY THE LINK-MT3DMS PACKAGE V6.2 AT TIME STEP   34, STRESS PERIOD    1

1
  VOLUMETRIC BUDGET FOR ENTIRE MODEL AT END OF TIME STEP 34 IN STRESS PERIOD   1
  ------------------------------------------------------------------------------

     CUMULATIVE VOLUMES      L**3       RATES FOR THIS TIME STEP      L**3/T
     ------------------                 ------------------------

           IN:                                      IN:
           ---                                      ---
             STORAGE =       17668.7676               STORAGE =       8.5912E-02
       CONSTANT HEAD =        1854.8322         CONSTANT HEAD =       3.4332E-02
                 MNW =       19500.5098                   MNW =           0.1201

            TOTAL IN =       39024.1094              TOTAL IN =           0.2403

          OUT:                                     OUT:
          ----                                     ----
             STORAGE =       19501.9355               STORAGE =           0.1198
       CONSTANT HEAD =          11.8553         CONSTANT HEAD =       3.8895E-04
                 MNW =       19500.5000                   MNW =           0.1201

           TOTAL OUT =       39014.2891             TOTAL OUT =           0.2403

            IN - OUT =           9.8187              IN - OUT =       5.3108E-05

 PERCENT DISCREPANCY =           0.03     PERCENT DISCREPANCY =           0.02






          TIME SUMMARY AT END OF TIME STEP  34 IN STRESS PERIOD    1
                    SECONDS     MINUTES      HOURS       DAYS        YEARS
                    -----------------------------------------------------------
   TIME STEP LENGTH  14562.      242.71      4.0451     0.16855     4.61457E-04
 STRESS PERIOD TIME 1.53917E+05  2565.3      42.755      1.7814     4.87733E-03
         TOTAL TIME 1.53917E+05  2565.3      42.755      1.7814     4.87733E-03
1
 
 SOLVING FOR HEAD 
     4 CALLS TO PCG ROUTINE FOR TIME STEP  35 IN STRESS PERIOD    1
    15 TOTAL ITERATIONS

 HEAD/DRAWDOWN PRINTOUT FLAG = 0     TOTAL BUDGET PRINTOUT FLAG = 1
 CELL-BY-CELL FLOW TERM FLAG = 0
 REUSING PREVIOUS VALUES OF IOFLG

 SAVING SATURATED THICKNESS AND FLOW TERMS ON UNIT  333 FOR MT3DMS
 BY THE LINK-MT3DMS PACKAGE V6.2 AT TIME STEP   35, STRESS PERIOD    1

1
  VOLUMETRIC BUDGET FOR ENTIRE MODEL AT END OF TIME STEP 35 IN STRESS PERIOD   1
  ------------------------------------------------------------------------------

     CUMULATIVE VOLUMES      L**3       RATES FOR THIS TIME STEP      L**3/T
     ------------------                 ------------------------

           IN:                                      IN:
           ---                                      ---
             STORAGE =       18942.7285               STORAGE =       7.9530E-02
       CONSTANT HEAD =        2496.8030         CONSTANT HEAD =       4.0076E-02
                 MNW =       21414.4082                   MNW =           0.1195

            TOTAL IN =       42853.9414              TOTAL IN =           0.2391

          OUT:                                     OUT:
          ----                                     ----
             STORAGE =       21406.9414               STORAGE =           0.1189
       CONSTANT HEAD =          21.9950         CONSTANT HEAD =       6.3299E-04
                 MNW =       21414.3926                   MNW =           0.1195

           TOTAL OUT =       42843.3281             TOTAL OUT =           0.2390

            IN - OUT =          10.6107              IN - OUT =       4.9424E-05

 PERCENT DISCREPANCY =           0.02     PERCENT DISCREPANCY =           0.02






          TIME SUMMARY AT END OF TIME STEP  35 IN STRESS PERIOD    1
                    SECONDS     MINUTES      HOURS       DAYS        YEARS
                    -----------------------------------------------------------
   TIME STEP LENGTH  16019.      266.98      4.4496     0.18540     5.07602E-04
 STRESS PERIOD TIME 1.69936E+05  2832.3      47.204      1.9668     5.38494E-03
         TOTAL TIME 1.69936E+05  2832.3      47.204      1.9668     5.38494E-03
1
 
 SOLVING FOR HEAD 
     3 CALLS TO PCG ROUTINE FOR TIME STEP  36 IN STRESS PERIOD    1
    15 TOTAL ITERATIONS

 HEAD/DRAWDOWN PRINTOUT FLAG = 0     TOTAL BUDGET PRINTOUT FLAG = 1
 CELL-BY-CELL FLOW TERM FLAG = 0
 REUSING PREVIOUS VALUES OF IOFLG

 SAVING SATURATED THICKNESS AND FLOW TERMS ON UNIT  333 FOR MT3DMS
 BY THE LINK-MT3DMS PACKAGE V6.2 AT TIME STEP   36, STRESS PERIOD    1

1
  VOLUMETRIC BUDGET FOR ENTIRE MODEL AT END OF TIME STEP 36 IN STRESS PERIOD   1
  ------------------------------------------------------------------------------

     CUMULATIVE VOLUMES      L**3       RATES FOR THIS TIME STEP      L**3/T
     ------------------                 ------------------------

           IN:                                      IN:
           ---                                      ---
             STORAGE =       20228.9531               STORAGE =       7.2996E-02
       CONSTANT HEAD =        3308.3792         CONSTANT HEAD =       4.6058E-02
                 MNW =       23509.3770                   MNW =           0.1189

            TOTAL IN =       47046.7109              TOTAL IN =           0.2379

          OUT:                                     OUT:
          ----                                     ----
             STORAGE =       23486.4141               STORAGE =           0.1180
       CONSTANT HEAD =          39.5889         CONSTANT HEAD =       9.9848E-04
                 MNW =       23509.3574                   MNW =           0.1189

           TOTAL OUT =       47035.3594             TOTAL OUT =           0.2379

            IN - OUT =          11.3489              IN - OUT =       4.1785E-05

 PERCENT DISCREPANCY =           0.02     PERCENT DISCREPANCY =           0.02






          TIME SUMMARY AT END OF TIME STEP  36 IN STRESS PERIOD    1
                    SECONDS     MINUTES      HOURS       DAYS        YEARS
                    -----------------------------------------------------------
   TIME STEP LENGTH  17621.      293.68      4.8946     0.20394     5.58362E-04
 STRESS PERIOD TIME 1.87556E+05  3125.9      52.099      2.1708     5.94330E-03
         TOTAL TIME 1.87556E+05  3125.9      52.099      2.1708     5.94330E-03
1
 
 SOLVING FOR HEAD 
     3 CALLS TO PCG ROUTINE FOR TIME STEP  37 IN STRESS PERIOD    1
    15 TOTAL ITERATIONS

 HEAD/DRAWDOWN PRINTOUT FLAG = 0     TOTAL BUDGET PRINTOUT FLAG = 1
 CELL-BY-CELL FLOW TERM FLAG = 0
 REUSING PREVIOUS VALUES OF IOFLG

 SAVING SATURATED THICKNESS AND FLOW TERMS ON UNIT  333 FOR MT3DMS
 BY THE LINK-MT3DMS PACKAGE V6.2 AT TIME STEP   37, STRESS PERIOD    1

1
  VOLUMETRIC BUDGET FOR ENTIRE MODEL AT END OF TIME STEP 37 IN STRESS PERIOD   1
  ------------------------------------------------------------------------------

     CUMULATIVE VOLUMES      L**3       RATES FOR THIS TIME STEP      L**3/T
     ------------------                 ------------------------

           IN:                                      IN:
           ---                                      ---
             STORAGE =       21513.0371               STORAGE =       6.6249E-02
       CONSTANT HEAD =        4320.0444         CONSTANT HEAD =       5.2194E-02
                 MNW =       25802.4980                   MNW =           0.1183

            TOTAL IN =       51635.5781              TOTAL IN =           0.2368

          OUT:                                     OUT:
          ----                                     ----
             STORAGE =       25751.7207               STORAGE =           0.1169
       CONSTANT HEAD =          69.1723         CONSTANT HEAD =       1.5263E-03
                 MNW =       25802.4766                   MNW =           0.1183

           TOTAL OUT =       51623.3711             TOTAL OUT =           0.2367

            IN - OUT =          12.2100              IN - OUT =       4.4338E-05

 PERCENT DISCREPANCY =           0.02     PERCENT DISCREPANCY =           0.02






          TIME SUMMARY AT END OF TIME STEP  37 IN STRESS PERIOD    1
                    SECONDS     MINUTES      HOURS       DAYS        YEARS
                    -----------------------------------------------------------
   TIME STEP LENGTH  19383.      323.04      5.3841     0.22434     6.14199E-04
 STRESS PERIOD TIME 2.06939E+05  3449.0      57.483      2.3951     6.55750E-03
         TOTAL TIME 2.06939E+05  3449.0      57.483      2.3951     6.55750E-03
1
 
 SOLVING FOR HEAD 
     4 CALLS TO PCG ROUTINE FOR TIME STEP  38 IN STRESS PERIOD    1
    15 TOTAL ITERATIONS

 HEAD/DRAWDOWN PRINTOUT FLAG = 0     TOTAL BUDGET PRINTOUT FLAG = 1
 CELL-BY-CELL FLOW TERM FLAG = 0
 REUSING PREVIOUS VALUES OF IOFLG

 SAVING SATURATED THICKNESS AND FLOW TERMS ON UNIT  333 FOR MT3DMS
 BY THE LINK-MT3DMS PACKAGE V6.2 AT TIME STEP   38, STRESS PERIOD    1

1
  VOLUMETRIC BUDGET FOR ENTIRE MODEL AT END OF TIME STEP 38 IN STRESS PERIOD   1
  ------------------------------------------------------------------------------

     CUMULATIVE VOLUMES      L**3       RATES FOR THIS TIME STEP      L**3/T
     ------------------                 ------------------------

           IN:                                      IN:
           ---                                      ---
             STORAGE =       22780.6328               STORAGE =       5.9453E-02
       CONSTANT HEAD =        5564.8374         CONSTANT HEAD =       5.8384E-02
                 MNW =       28312.1445                   MNW =           0.1177

            TOTAL IN =       56657.6133              TOTAL IN =           0.2355

          OUT:                                     OUT:
          ----                                     ----
             STORAGE =       28214.9121               STORAGE =           0.1155
       CONSTANT HEAD =         117.4424         CONSTANT HEAD =       2.2640E-03
                 MNW =       28312.1152                   MNW =           0.1177

           TOTAL OUT =       56644.4688             TOTAL OUT =           0.2355

            IN - OUT =          13.1450              IN - OUT =       4.3794E-05

 PERCENT DISCREPANCY =           0.02     PERCENT DISCREPANCY =           0.02






          TIME SUMMARY AT END OF TIME STEP  38 IN STRESS PERIOD    1
                    SECONDS     MINUTES      HOURS       DAYS        YEARS
                    -----------------------------------------------------------
   TIME STEP LENGTH  21321.      355.35      5.9225     0.24677     6.75619E-04
 STRESS PERIOD TIME 2.28260E+05  3804.3      63.405      2.6419     7.23312E-03
         TOTAL TIME 2.28260E+05  3804.3      63.405      2.6419     7.23312E-03
1
 
 SOLVING FOR HEAD 
     3 CALLS TO PCG ROUTINE FOR TIME STEP  39 IN STRESS PERIOD    1
    16 TOTAL ITERATIONS

 HEAD/DRAWDOWN PRINTOUT FLAG = 0     TOTAL BUDGET PRINTOUT FLAG = 1
 CELL-BY-CELL FLOW TERM FLAG = 0
 REUSING PREVIOUS VALUES OF IOFLG

 SAVING SATURATED THICKNESS AND FLOW TERMS ON UNIT  333 FOR MT3DMS
 BY THE LINK-MT3DMS PACKAGE V6.2 AT TIME STEP   39, STRESS PERIOD    1

1
  VOLUMETRIC BUDGET FOR ENTIRE MODEL AT END OF TIME STEP 39 IN STRESS PERIOD   1
  ------------------------------------------------------------------------------

     CUMULATIVE VOLUMES      L**3       RATES FOR THIS TIME STEP      L**3/T
     ------------------                 ------------------------

           IN:                                      IN:
           ---                                      ---
             STORAGE =       24018.3789               STORAGE =       5.2776E-02
       CONSTANT HEAD =        7077.6460         CONSTANT HEAD =       6.4504E-02
                 MNW =       31059.8574                   MNW =           0.1172

            TOTAL IN =       62155.8828              TOTAL IN =           0.2344

          OUT:                                     OUT:
          ----                                     ----
             STORAGE =       30887.9609               STORAGE =           0.1140
       CONSTANT HEAD =         194.0424         CONSTANT HEAD =       3.2661E-03
                 MNW =       31059.8438                   MNW =           0.1172

           TOTAL OUT =       62141.8477             TOTAL OUT =           0.2344

            IN - OUT =          14.0352              IN - OUT =       3.7914E-05

 PERCENT DISCREPANCY =           0.02     PERCENT DISCREPANCY =           0.02






          TIME SUMMARY AT END OF TIME STEP  39 IN STRESS PERIOD    1
                    SECONDS     MINUTES      HOURS       DAYS        YEARS
                    -----------------------------------------------------------
   TIME STEP LENGTH  23453.      390.88      6.5147     0.27145     7.43180E-04
 STRESS PERIOD TIME 2.51713E+05  4195.2      69.920      2.9133     7.97630E-03
         TOTAL TIME 2.51713E+05  4195.2      69.920      2.9133     7.97630E-03
1
 
 SOLVING FOR HEAD 
     3 CALLS TO PCG ROUTINE FOR TIME STEP  40 IN STRESS PERIOD    1
    15 TOTAL ITERATIONS

 HEAD/DRAWDOWN PRINTOUT FLAG = 0     TOTAL BUDGET PRINTOUT FLAG = 1
 CELL-BY-CELL FLOW TERM FLAG = 0
 REUSING PREVIOUS VALUES OF IOFLG

 SAVING SATURATED THICKNESS AND FLOW TERMS ON UNIT  333 FOR MT3DMS
 BY THE LINK-MT3DMS PACKAGE V6.2 AT TIME STEP   40, STRESS PERIOD    1

1
  VOLUMETRIC BUDGET FOR ENTIRE MODEL AT END OF TIME STEP 40 IN STRESS PERIOD   1
  ------------------------------------------------------------------------------

     CUMULATIVE VOLUMES      L**3       RATES FOR THIS TIME STEP      L**3/T
     ------------------                 ------------------------

           IN:                                      IN:
           ---                                      ---
             STORAGE =       25212.4141               STORAGE =       4.6283E-02
       CONSTANT HEAD =        8895.7197         CONSTANT HEAD =       7.0473E-02
                 MNW =       34067.8477                   MNW =           0.1166

            TOTAL IN =       68175.9844              TOTAL IN =           0.2334

          OUT:                                     OUT:
          ----                                     ----
             STORAGE =       33780.8594               STORAGE =           0.1121
       CONSTANT HEAD =         312.3356         CONSTANT HEAD =       4.5853E-03
                 MNW =       34067.8242                   MNW =           0.1166

           TOTAL OUT =       68161.0156             TOTAL OUT =           0.2333

            IN - OUT =          14.9623              IN - OUT =       3.5844E-05

 PERCENT DISCREPANCY =           0.02     PERCENT DISCREPANCY =           0.02






          TIME SUMMARY AT END OF TIME STEP  40 IN STRESS PERIOD    1
                    SECONDS     MINUTES      HOURS       DAYS        YEARS
                    -----------------------------------------------------------
   TIME STEP LENGTH  25798.      429.97      7.1662     0.29859     8.17499E-04
 STRESS PERIOD TIME 2.77511E+05  4625.2      77.086      3.2119     8.79379E-03
         TOTAL TIME 2.77511E+05  4625.2      77.086      3.2119     8.79379E-03
1
 
 SOLVING FOR HEAD 
     3 CALLS TO PCG ROUTINE FOR TIME STEP  41 IN STRESS PERIOD    1
    14 TOTAL ITERATIONS

 HEAD/DRAWDOWN PRINTOUT FLAG = 0     TOTAL BUDGET PRINTOUT FLAG = 1
 CELL-BY-CELL FLOW TERM FLAG = 0
 REUSING PREVIOUS VALUES OF IOFLG

 SAVING SATURATED THICKNESS AND FLOW TERMS ON UNIT  333 FOR MT3DMS
 BY THE LINK-MT3DMS PACKAGE V6.2 AT TIME STEP   41, STRESS PERIOD    1

1
  VOLUMETRIC BUDGET FOR ENTIRE MODEL AT END OF TIME STEP 41 IN STRESS PERIOD   1
  ------------------------------------------------------------------------------

     CUMULATIVE VOLUMES      L**3       RATES FOR THIS TIME STEP      L**3/T
     ------------------                 ------------------------

           IN:                                      IN:
           ---                                      ---
             STORAGE =       26346.8887               STORAGE =       3.9977E-02
       CONSTANT HEAD =       11058.2900         CONSTANT HEAD =       7.6206E-02
                 MNW =       37361.1914                   MNW =           0.1161

            TOTAL IN =       74766.3672              TOTAL IN =           0.2322

          OUT:                                     OUT:
          ----                                     ----
             STORAGE =       36898.6953               STORAGE =           0.1099
       CONSTANT HEAD =         490.3741         CONSTANT HEAD =       6.2738E-03
                 MNW =       37361.1680                   MNW =           0.1161

           TOTAL OUT =       74750.2344             TOTAL OUT =           0.2322

            IN - OUT =          16.1327              IN - OUT =       4.1226E-05

 PERCENT DISCREPANCY =           0.02     PERCENT DISCREPANCY =           0.02






          TIME SUMMARY AT END OF TIME STEP  41 IN STRESS PERIOD    1
                    SECONDS     MINUTES      HOURS       DAYS        YEARS
                    -----------------------------------------------------------
   TIME STEP LENGTH  28378.      472.97      7.8828     0.32845     8.99248E-04
 STRESS PERIOD TIME 3.05889E+05  5098.2      84.969      3.5404     9.69304E-03
         TOTAL TIME 3.05889E+05  5098.2      84.969      3.5404     9.69304E-03
1
 
 SOLVING FOR HEAD 
     3 CALLS TO PCG ROUTINE FOR TIME STEP  42 IN STRESS PERIOD    1
    14 TOTAL ITERATIONS

 HEAD/DRAWDOWN PRINTOUT FLAG = 0     TOTAL BUDGET PRINTOUT FLAG = 1
 CELL-BY-CELL FLOW TERM FLAG = 0
 REUSING PREVIOUS VALUES OF IOFLG

 SAVING SATURATED THICKNESS AND FLOW TERMS ON UNIT  333 FOR MT3DMS
 BY THE LINK-MT3DMS PACKAGE V6.2 AT TIME STEP   42, STRESS PERIOD    1

1
  VOLUMETRIC BUDGET FOR ENTIRE MODEL AT END OF TIME STEP 42 IN STRESS PERIOD   1
  ------------------------------------------------------------------------------

     CUMULATIVE VOLUMES      L**3       RATES FOR THIS TIME STEP      L**3/T
     ------------------                 ------------------------

           IN:                                      IN:
           ---                                      ---
             STORAGE =       27409.8770               STORAGE =       3.4053E-02
       CONSTANT HEAD =       13605.7217         CONSTANT HEAD =       8.1607E-02
                 MNW =       40966.9648                   MNW =           0.1155

            TOTAL IN =       81982.5625              TOTAL IN =           0.2312

          OUT:                                     OUT:
          ----                                     ----
             STORAGE =       40246.5508               STORAGE =           0.1072
       CONSTANT HEAD =         751.8977         CONSTANT HEAD =       8.3779E-03
                 MNW =       40966.9258                   MNW =           0.1155

           TOTAL OUT =       81965.3750             TOTAL OUT =           0.2311

            IN - OUT =          17.1892              IN - OUT =       3.3914E-05

 PERCENT DISCREPANCY =           0.02     PERCENT DISCREPANCY =           0.01






          TIME SUMMARY AT END OF TIME STEP  42 IN STRESS PERIOD    1
                    SECONDS     MINUTES      HOURS       DAYS        YEARS
                    -----------------------------------------------------------
   TIME STEP LENGTH  31216.      520.27      8.6711     0.36130     9.89173E-04
 STRESS PERIOD TIME 3.37105E+05  5618.4      93.640      3.9017     1.06822E-02
         TOTAL TIME 3.37105E+05  5618.4      93.640      3.9017     1.06822E-02
1
 
 SOLVING FOR HEAD 
     3 CALLS TO PCG ROUTINE FOR TIME STEP  43 IN STRESS PERIOD    1
    14 TOTAL ITERATIONS

 HEAD/DRAWDOWN PRINTOUT FLAG = 0     TOTAL BUDGET PRINTOUT FLAG = 1
 CELL-BY-CELL FLOW TERM FLAG = 0
 REUSING PREVIOUS VALUES OF IOFLG

 SAVING SATURATED THICKNESS AND FLOW TERMS ON UNIT  333 FOR MT3DMS
 BY THE LINK-MT3DMS PACKAGE V6.2 AT TIME STEP   43, STRESS PERIOD    1

1
  VOLUMETRIC BUDGET FOR ENTIRE MODEL AT END OF TIME STEP 43 IN STRESS PERIOD   1
  ------------------------------------------------------------------------------

     CUMULATIVE VOLUMES      L**3       RATES FOR THIS TIME STEP      L**3/T
     ------------------                 ------------------------

           IN:                                      IN:
           ---                                      ---
             STORAGE =       28389.6230               STORAGE =       2.8533E-02
       CONSTANT HEAD =       16579.8574         CONSTANT HEAD =       8.6615E-02
                 MNW =       44915.3281                   MNW =           0.1150

            TOTAL IN =       89884.8125              TOTAL IN =           0.2301

          OUT:                                     OUT:
          ----                                     ----
             STORAGE =       43823.5781               STORAGE =           0.1042
       CONSTANT HEAD =        1127.3375         CONSTANT HEAD =       1.0934E-02
                 MNW =       44915.2852                   MNW =           0.1150

           TOTAL OUT =       89866.2031             TOTAL OUT =           0.2301

            IN - OUT =          18.6078              IN - OUT =       4.1213E-05

 PERCENT DISCREPANCY =           0.02     PERCENT DISCREPANCY =           0.02






          TIME SUMMARY AT END OF TIME STEP  43 IN STRESS PERIOD    1
                    SECONDS     MINUTES      HOURS       DAYS        YEARS
                    -----------------------------------------------------------
   TIME STEP LENGTH  34338.      572.29      9.5382     0.39743     1.08809E-03
 STRESS PERIOD TIME 3.71443E+05  6190.7      103.18      4.2991     1.17703E-02
         TOTAL TIME 3.71443E+05  6190.7      103.18      4.2991     1.17703E-02
1
 
 SOLVING FOR HEAD 
     3 CALLS TO PCG ROUTINE FOR TIME STEP  44 IN STRESS PERIOD    1
    15 TOTAL ITERATIONS

 HEAD/DRAWDOWN PRINTOUT FLAG = 0     TOTAL BUDGET PRINTOUT FLAG = 1
 CELL-BY-CELL FLOW TERM FLAG = 0
 REUSING PREVIOUS VALUES OF IOFLG

 SAVING SATURATED THICKNESS AND FLOW TERMS ON UNIT  333 FOR MT3DMS
 BY THE LINK-MT3DMS PACKAGE V6.2 AT TIME STEP   44, STRESS PERIOD    1

1
  VOLUMETRIC BUDGET FOR ENTIRE MODEL AT END OF TIME STEP 44 IN STRESS PERIOD   1
  ------------------------------------------------------------------------------

     CUMULATIVE VOLUMES      L**3       RATES FOR THIS TIME STEP      L**3/T
     ------------------                 ------------------------

           IN:                                      IN:
           ---                                      ---
             STORAGE =       29274.6543               STORAGE =       2.3431E-02
       CONSTANT HEAD =       20023.6621         CONSTANT HEAD =       9.1175E-02
                 MNW =       49239.3320                   MNW =           0.1145

            TOTAL IN =       98537.6484              TOTAL IN =           0.2291

          OUT:                                     OUT:
          ----                                     ----
             STORAGE =       47623.4609               STORAGE =           0.1006
       CONSTANT HEAD =        1654.7830         CONSTANT HEAD =       1.3964E-02
                 MNW =       49239.2734                   MNW =           0.1145

           TOTAL OUT =       98517.5156             TOTAL OUT =           0.2290

            IN - OUT =          20.1311              IN - OUT =       4.0324E-05

 PERCENT DISCREPANCY =           0.02     PERCENT DISCREPANCY =           0.02






          TIME SUMMARY AT END OF TIME STEP  44 IN STRESS PERIOD    1
                    SECONDS     MINUTES      HOURS       DAYS        YEARS
                    -----------------------------------------------------------
   TIME STEP LENGTH  37771.      629.52      10.492     0.43717     1.19690E-03
 STRESS PERIOD TIME 4.09214E+05  6820.2      113.67      4.7363     1.29672E-02
         TOTAL TIME 4.09214E+05  6820.2      113.67      4.7363     1.29672E-02
1
 
 SOLVING FOR HEAD 
     4 CALLS TO PCG ROUTINE FOR TIME STEP  45 IN STRESS PERIOD    1
    15 TOTAL ITERATIONS

 HEAD/DRAWDOWN PRINTOUT FLAG = 0     TOTAL BUDGET PRINTOUT FLAG = 1
 CELL-BY-CELL FLOW TERM FLAG = 0
 REUSING PREVIOUS VALUES OF IOFLG

 SAVING SATURATED THICKNESS AND FLOW TERMS ON UNIT  333 FOR MT3DMS
 BY THE LINK-MT3DMS PACKAGE V6.2 AT TIME STEP   45, STRESS PERIOD    1

1
  VOLUMETRIC BUDGET FOR ENTIRE MODEL AT END OF TIME STEP 45 IN STRESS PERIOD   1
  ------------------------------------------------------------------------------

     CUMULATIVE VOLUMES      L**3       RATES FOR THIS TIME STEP      L**3/T
     ------------------                 ------------------------

           IN:                                      IN:
           ---                                      ---
             STORAGE =       30057.3086               STORAGE =       1.8837E-02
       CONSTANT HEAD =       23980.9883         CONSTANT HEAD =       9.5246E-02
                 MNW =       53973.8477                   MNW =           0.1140

            TOTAL IN =      108012.1410              TOTAL IN =           0.2280

          OUT:                                     OUT:
          ----                                     ----
             STORAGE =       51635.8086               STORAGE =       9.6570E-02
       CONSTANT HEAD =        2380.8755         CONSTANT HEAD =       1.7476E-02
                 MNW =       53973.7813                   MNW =           0.1140

           TOTAL OUT =      107990.4690             TOTAL OUT =           0.2280

            IN - OUT =          21.6792              IN - OUT =       3.7281E-05

 PERCENT DISCREPANCY =           0.02     PERCENT DISCREPANCY =           0.02






          TIME SUMMARY AT END OF TIME STEP  45 IN STRESS PERIOD    1
                    SECONDS     MINUTES      HOURS       DAYS        YEARS
                    -----------------------------------------------------------
   TIME STEP LENGTH  41548.      692.47      11.541     0.48088     1.31659E-03
 STRESS PERIOD TIME 4.50762E+05  7512.7      125.21      5.2172     1.42838E-02
         TOTAL TIME 4.50762E+05  7512.7      125.21      5.2172     1.42838E-02
1
 
 SOLVING FOR HEAD 
     3 CALLS TO PCG ROUTINE FOR TIME STEP  46 IN STRESS PERIOD    1
    16 TOTAL ITERATIONS

 HEAD/DRAWDOWN PRINTOUT FLAG = 0     TOTAL BUDGET PRINTOUT FLAG = 1
 CELL-BY-CELL FLOW TERM FLAG = 0
 REUSING PREVIOUS VALUES OF IOFLG

 SAVING SATURATED THICKNESS AND FLOW TERMS ON UNIT  333 FOR MT3DMS
 BY THE LINK-MT3DMS PACKAGE V6.2 AT TIME STEP   46, STRESS PERIOD    1

1
  VOLUMETRIC BUDGET FOR ENTIRE MODEL AT END OF TIME STEP 46 IN STRESS PERIOD   1
  ------------------------------------------------------------------------------

     CUMULATIVE VOLUMES      L**3       RATES FOR THIS TIME STEP      L**3/T
     ------------------                 ------------------------

           IN:                                      IN:
           ---                                      ---
             STORAGE =       30734.8262               STORAGE =       1.4824E-02
       CONSTANT HEAD =       28495.5410         CONSTANT HEAD =       9.8780E-02
                 MNW =       59160.9414                   MNW =           0.1135

            TOTAL IN =      118391.3120              TOTAL IN =           0.2271

          OUT:                                     OUT:
          ----                                     ----
             STORAGE =       55845.7969               STORAGE =       9.2116E-02
       CONSTANT HEAD =        3361.4248         CONSTANT HEAD =       2.1455E-02
                 MNW =       59160.8633                   MNW =           0.1135

           TOTAL OUT =      118368.0860             TOTAL OUT =           0.2271

            IN - OUT =          23.2236              IN - OUT =       3.3823E-05

 PERCENT DISCREPANCY =           0.02     PERCENT DISCREPANCY =           0.01






          TIME SUMMARY AT END OF TIME STEP  46 IN STRESS PERIOD    1
                    SECONDS     MINUTES      HOURS       DAYS        YEARS
                    -----------------------------------------------------------
   TIME STEP LENGTH  45703.      761.72      12.695     0.52897     1.44825E-03
 STRESS PERIOD TIME 4.96466E+05  8274.4      137.91      5.7461     1.57320E-02
         TOTAL TIME 4.96466E+05  8274.4      137.91      5.7461     1.57320E-02
1
 
 SOLVING FOR HEAD 
     3 CALLS TO PCG ROUTINE FOR TIME STEP  47 IN STRESS PERIOD    1
    15 TOTAL ITERATIONS

 HEAD/DRAWDOWN PRINTOUT FLAG = 0     TOTAL BUDGET PRINTOUT FLAG = 1
 CELL-BY-CELL FLOW TERM FLAG = 0
 REUSING PREVIOUS VALUES OF IOFLG

 SAVING SATURATED THICKNESS AND FLOW TERMS ON UNIT  333 FOR MT3DMS
 BY THE LINK-MT3DMS PACKAGE V6.2 AT TIME STEP   47, STRESS PERIOD    1

1
  VOLUMETRIC BUDGET FOR ENTIRE MODEL AT END OF TIME STEP 47 IN STRESS PERIOD   1
  ------------------------------------------------------------------------------

     CUMULATIVE VOLUMES      L**3       RATES FOR THIS TIME STEP      L**3/T
     ------------------                 ------------------------

           IN:                                      IN:
           ---                                      ---
             STORAGE =       31305.8164               STORAGE =       1.1358E-02
       CONSTANT HEAD =       33612.9453         CONSTANT HEAD =           0.1018
                 MNW =       64843.0430                   MNW =           0.1130

            TOTAL IN =      129761.8050              TOTAL IN =           0.2262

          OUT:                                     OUT:
          ----                                     ----
             STORAGE =       60231.5703               STORAGE =       8.7238E-02
       CONSTANT HEAD =        4662.1929         CONSTANT HEAD =       2.5874E-02
                 MNW =       64842.9805                   MNW =           0.1130

           TOTAL OUT =      129736.7420             TOTAL OUT =           0.2261

            IN - OUT =          25.0610              IN - OUT =       3.6587E-05

 PERCENT DISCREPANCY =           0.02     PERCENT DISCREPANCY =           0.02






          TIME SUMMARY AT END OF TIME STEP  47 IN STRESS PERIOD    1
                    SECONDS     MINUTES      HOURS       DAYS        YEARS
                    -----------------------------------------------------------
   TIME STEP LENGTH  50274.      837.89      13.965     0.58187     1.59307E-03
 STRESS PERIOD TIME 5.46739E+05  9112.3      151.87      6.3280     1.73251E-02
         TOTAL TIME 5.46739E+05  9112.3      151.87      6.3280     1.73251E-02
1
 
 SOLVING FOR HEAD 
     3 CALLS TO PCG ROUTINE FOR TIME STEP  48 IN STRESS PERIOD    1
    15 TOTAL ITERATIONS

 HEAD/DRAWDOWN PRINTOUT FLAG = 0     TOTAL BUDGET PRINTOUT FLAG = 1
 CELL-BY-CELL FLOW TERM FLAG = 0
 REUSING PREVIOUS VALUES OF IOFLG

 SAVING SATURATED THICKNESS AND FLOW TERMS ON UNIT  333 FOR MT3DMS
 BY THE LINK-MT3DMS PACKAGE V6.2 AT TIME STEP   48, STRESS PERIOD    1

1
  VOLUMETRIC BUDGET FOR ENTIRE MODEL AT END OF TIME STEP 48 IN STRESS PERIOD   1
  ------------------------------------------------------------------------------

     CUMULATIVE VOLUMES      L**3       RATES FOR THIS TIME STEP      L**3/T
     ------------------                 ------------------------

           IN:                                      IN:
           ---                                      ---
             STORAGE =       31771.5039               STORAGE =       8.4210E-03
       CONSTANT HEAD =       39379.6211         CONSTANT HEAD =           0.1043
                 MNW =       71067.8125                   MNW =           0.1126

            TOTAL IN =      142218.9380              TOTAL IN =           0.2253

          OUT:                                     OUT:
          ----                                     ----
             STORAGE =       64765.4180               STORAGE =       8.1985E-02
       CONSTANT HEAD =        6359.1343         CONSTANT HEAD =       3.0686E-02
                 MNW =       71067.7812                   MNW =           0.1126

           TOTAL OUT =      142192.3280             TOTAL OUT =           0.2252

            IN - OUT =          26.6040              IN - OUT =       2.7909E-05

 PERCENT DISCREPANCY =           0.02     PERCENT DISCREPANCY =           0.01






          TIME SUMMARY AT END OF TIME STEP  48 IN STRESS PERIOD    1
                    SECONDS     MINUTES      HOURS       DAYS        YEARS
                    -----------------------------------------------------------
   TIME STEP LENGTH  55301.      921.68      15.361     0.64006     1.75238E-03
 STRESS PERIOD TIME 6.02040E+05  10034.      167.23      6.9681     1.90775E-02
         TOTAL TIME 6.02040E+05  10034.      167.23      6.9681     1.90775E-02
1
 
 SOLVING FOR HEAD 
     3 CALLS TO PCG ROUTINE FOR TIME STEP  49 IN STRESS PERIOD    1
    14 TOTAL ITERATIONS

 HEAD/DRAWDOWN PRINTOUT FLAG = 0     TOTAL BUDGET PRINTOUT FLAG = 1
 CELL-BY-CELL FLOW TERM FLAG = 0
 REUSING PREVIOUS VALUES OF IOFLG

 SAVING SATURATED THICKNESS AND FLOW TERMS ON UNIT  333 FOR MT3DMS
 BY THE LINK-MT3DMS PACKAGE V6.2 AT TIME STEP   49, STRESS PERIOD    1

1
  VOLUMETRIC BUDGET FOR ENTIRE MODEL AT END OF TIME STEP 49 IN STRESS PERIOD   1
  ------------------------------------------------------------------------------

     CUMULATIVE VOLUMES      L**3       RATES FOR THIS TIME STEP      L**3/T
     ------------------                 ------------------------

           IN:                                      IN:
           ---                                      ---
             STORAGE =       32136.2383               STORAGE =       5.9959E-03
       CONSTANT HEAD =       45844.0977         CONSTANT HEAD =           0.1063
                 MNW =       77888.0234                   MNW =           0.1121

            TOTAL IN =      155868.3590              TOTAL IN =           0.2244

          OUT:                                     OUT:
          ----                                     ----
             STORAGE =       69412.6875               STORAGE =       7.6396E-02
       CONSTANT HEAD =        8538.7910         CONSTANT HEAD =       3.5831E-02
                 MNW =       77888.0000                   MNW =           0.1121

           TOTAL OUT =      155839.4840             TOTAL OUT =           0.2243

            IN - OUT =          28.8809              IN - OUT =       3.7406E-05

 PERCENT DISCREPANCY =           0.02     PERCENT DISCREPANCY =           0.02






          TIME SUMMARY AT END OF TIME STEP  49 IN STRESS PERIOD    1
                    SECONDS     MINUTES      HOURS       DAYS        YEARS
                    -----------------------------------------------------------
   TIME STEP LENGTH  60831.      1013.9      16.898     0.70406     1.92762E-03
 STRESS PERIOD TIME 6.62871E+05  11048.      184.13      7.6721     2.10051E-02
         TOTAL TIME 6.62871E+05  11048.      184.13      7.6721     2.10051E-02
1
 
 SOLVING FOR HEAD 
     3 CALLS TO PCG ROUTINE FOR TIME STEP  50 IN STRESS PERIOD    1
    13 TOTAL ITERATIONS

 HEAD/DRAWDOWN PRINTOUT FLAG = 0     TOTAL BUDGET PRINTOUT FLAG = 1
 CELL-BY-CELL FLOW TERM FLAG = 0
 REUSING PREVIOUS VALUES OF IOFLG

 SAVING SATURATED THICKNESS AND FLOW TERMS ON UNIT  333 FOR MT3DMS
 BY THE LINK-MT3DMS PACKAGE V6.2 AT TIME STEP   50, STRESS PERIOD    1

1
  VOLUMETRIC BUDGET FOR ENTIRE MODEL AT END OF TIME STEP 50 IN STRESS PERIOD   1
  ------------------------------------------------------------------------------

     CUMULATIVE VOLUMES      L**3       RATES FOR THIS TIME STEP      L**3/T
     ------------------                 ------------------------

           IN:                                      IN:
           ---                                      ---
             STORAGE =       32406.0234               STORAGE =       4.0318E-03
       CONSTANT HEAD =       53057.1680         CONSTANT HEAD =           0.1078
                 MNW =       85361.5000                   MNW =           0.1117

            TOTAL IN =      170824.6880              TOTAL IN =           0.2235

          OUT:                                     OUT:
          ----                                     ----
             STORAGE =       74133.9141               STORAGE =       7.0556E-02
       CONSTANT HEAD =       11298.2754         CONSTANT HEAD =       4.1239E-02
                 MNW =       85361.4375                   MNW =           0.1117

           TOTAL OUT =      170793.6250             TOTAL OUT =           0.2235

            IN - OUT =          31.0645              IN - OUT =       3.2672E-05

 PERCENT DISCREPANCY =           0.02     PERCENT DISCREPANCY =           0.01






          TIME SUMMARY AT END OF TIME STEP  50 IN STRESS PERIOD    1
                    SECONDS     MINUTES      HOURS       DAYS        YEARS
                    -----------------------------------------------------------
   TIME STEP LENGTH  66914.      1115.2      18.587     0.77447     2.12038E-03
 STRESS PERIOD TIME 7.29785E+05  12163.      202.72      8.4466     2.31255E-02
         TOTAL TIME 7.29785E+05  12163.      202.72      8.4466     2.31255E-02
1
 
 SOLVING FOR HEAD 
     3 CALLS TO PCG ROUTINE FOR TIME STEP  51 IN STRESS PERIOD    1
    14 TOTAL ITERATIONS

 HEAD/DRAWDOWN PRINTOUT FLAG = 0     TOTAL BUDGET PRINTOUT FLAG = 1
 CELL-BY-CELL FLOW TERM FLAG = 0
 REUSING PREVIOUS VALUES OF IOFLG

 SAVING SATURATED THICKNESS AND FLOW TERMS ON UNIT  333 FOR MT3DMS
 BY THE LINK-MT3DMS PACKAGE V6.2 AT TIME STEP   51, STRESS PERIOD    1

1
  VOLUMETRIC BUDGET FOR ENTIRE MODEL AT END OF TIME STEP 51 IN STRESS PERIOD   1
  ------------------------------------------------------------------------------

     CUMULATIVE VOLUMES      L**3       RATES FOR THIS TIME STEP      L**3/T
     ------------------                 ------------------------

           IN:                                      IN:
           ---                                      ---
             STORAGE =       32591.1621               STORAGE =       2.5153E-03
       CONSTANT HEAD =       61072.7461         CONSTANT HEAD =           0.1089
                 MNW =       93551.5938                   MNW =           0.1113

            TOTAL IN =      187215.5000              TOTAL IN =           0.2227

          OUT:                                     OUT:
          ----                                     ----
             STORAGE =       78885.4297               STORAGE =       6.4554E-02
       CONSTANT HEAD =       14744.6484         CONSTANT HEAD =       4.6822E-02
                 MNW =       93551.5391                   MNW =           0.1113

           TOTAL OUT =      187181.6250             TOTAL OUT =           0.2226

            IN - OUT =          33.8848              IN - OUT =       3.8305E-05

 PERCENT DISCREPANCY =           0.02     PERCENT DISCREPANCY =           0.02






          TIME SUMMARY AT END OF TIME STEP  51 IN STRESS PERIOD    1
                    SECONDS     MINUTES      HOURS       DAYS        YEARS
                    -----------------------------------------------------------
   TIME STEP LENGTH  73606.      1226.8      20.446     0.85192     2.33242E-03
 STRESS PERIOD TIME 8.03391E+05  13390.      223.16      9.2985     2.54579E-02
         TOTAL TIME 8.03391E+05  13390.      223.16      9.2985     2.54579E-02
1
 
 SOLVING FOR HEAD 
     3 CALLS TO PCG ROUTINE FOR TIME STEP  52 IN STRESS PERIOD    1
    15 TOTAL ITERATIONS

 HEAD/DRAWDOWN PRINTOUT FLAG = 0     TOTAL BUDGET PRINTOUT FLAG = 1
 CELL-BY-CELL FLOW TERM FLAG = 0
 REUSING PREVIOUS VALUES OF IOFLG

 SAVING SATURATED THICKNESS AND FLOW TERMS ON UNIT  333 FOR MT3DMS
 BY THE LINK-MT3DMS PACKAGE V6.2 AT TIME STEP   52, STRESS PERIOD    1

1
  VOLUMETRIC BUDGET FOR ENTIRE MODEL AT END OF TIME STEP 52 IN STRESS PERIOD   1
  ------------------------------------------------------------------------------

     CUMULATIVE VOLUMES      L**3       RATES FOR THIS TIME STEP      L**3/T
     ------------------                 ------------------------

           IN:                                      IN:
           ---                                      ---
             STORAGE =       32701.7773               STORAGE =       1.3662E-03
       CONSTANT HEAD =       69949.5312         CONSTANT HEAD =           0.1096
                 MNW =      102528.6640                   MNW =           0.1109

            TOTAL IN =      205179.9690              TOTAL IN =           0.2219

          OUT:                                     OUT:
          ----                                     ----
             STORAGE =       83619.2578               STORAGE =       5.8467E-02
       CONSTANT HEAD =       18995.3535         CONSTANT HEAD =       5.2500E-02
                 MNW =      102528.5780                   MNW =           0.1109

           TOTAL OUT =      205143.1880             TOTAL OUT =           0.2218

            IN - OUT =          36.7832              IN - OUT =       3.5764E-05

 PERCENT DISCREPANCY =           0.02     PERCENT DISCREPANCY =           0.02






          TIME SUMMARY AT END OF TIME STEP  52 IN STRESS PERIOD    1
                    SECONDS     MINUTES      HOURS       DAYS        YEARS
                    -----------------------------------------------------------
   TIME STEP LENGTH  80966.      1349.4      22.491     0.93711     2.56566E-03
 STRESS PERIOD TIME 8.84357E+05  14739.      245.65      10.236     2.80236E-02
         TOTAL TIME 8.84357E+05  14739.      245.65      10.236     2.80236E-02
1
 
 SOLVING FOR HEAD 
     3 CALLS TO PCG ROUTINE FOR TIME STEP  53 IN STRESS PERIOD    1
    14 TOTAL ITERATIONS

 HEAD/DRAWDOWN PRINTOUT FLAG = 0     TOTAL BUDGET PRINTOUT FLAG = 1
 CELL-BY-CELL FLOW TERM FLAG = 0
 REUSING PREVIOUS VALUES OF IOFLG

 SAVING SATURATED THICKNESS AND FLOW TERMS ON UNIT  333 FOR MT3DMS
 BY THE LINK-MT3DMS PACKAGE V6.2 AT TIME STEP   53, STRESS PERIOD    1

1
  VOLUMETRIC BUDGET FOR ENTIRE MODEL AT END OF TIME STEP 53 IN STRESS PERIOD   1
  ------------------------------------------------------------------------------

     CUMULATIVE VOLUMES      L**3       RATES FOR THIS TIME STEP      L**3/T
     ------------------                 ------------------------

           IN:                                      IN:
           ---                                      ---
             STORAGE =       32756.2285               STORAGE =       6.1139E-04
       CONSTANT HEAD =       79752.0234         CONSTANT HEAD =           0.1101
                 MNW =      112368.9610                   MNW =           0.1105

            TOTAL IN =      224877.2190              TOTAL IN =           0.2212

          OUT:                                     OUT:
          ----                                     ----
             STORAGE =       88292.0000               STORAGE =       5.2466E-02
       CONSTANT HEAD =       24176.7852         CONSTANT HEAD =       5.8177E-02
                 MNW =      112368.8670                   MNW =           0.1105

           TOTAL OUT =      224837.6560             TOTAL OUT =           0.2211

            IN - OUT =          39.5605              IN - OUT =       3.1233E-05

 PERCENT DISCREPANCY =           0.02     PERCENT DISCREPANCY =           0.01






          TIME SUMMARY AT END OF TIME STEP  53 IN STRESS PERIOD    1
                    SECONDS     MINUTES      HOURS       DAYS        YEARS
                    -----------------------------------------------------------
   TIME STEP LENGTH  89063.      1484.4      24.740      1.0308     2.82223E-03
 STRESS PERIOD TIME 9.73420E+05  16224.      270.39      11.266     3.08458E-02
         TOTAL TIME 9.73420E+05  16224.      270.39      11.266     3.08458E-02
1
 
 SOLVING FOR HEAD 
     3 CALLS TO PCG ROUTINE FOR TIME STEP  54 IN STRESS PERIOD    1
    14 TOTAL ITERATIONS

 HEAD/DRAWDOWN PRINTOUT FLAG = 0     TOTAL BUDGET PRINTOUT FLAG = 1
 CELL-BY-CELL FLOW TERM FLAG = 0
 REUSING PREVIOUS VALUES OF IOFLG

 SAVING SATURATED THICKNESS AND FLOW TERMS ON UNIT  333 FOR MT3DMS
 BY THE LINK-MT3DMS PACKAGE V6.2 AT TIME STEP   54, STRESS PERIOD    1

1
  VOLUMETRIC BUDGET FOR ENTIRE MODEL AT END OF TIME STEP 54 IN STRESS PERIOD   1
  ------------------------------------------------------------------------------

     CUMULATIVE VOLUMES      L**3       RATES FOR THIS TIME STEP      L**3/T
     ------------------                 ------------------------

           IN:                                      IN:
           ---                                      ---
             STORAGE =       32770.8945               STORAGE =       1.4971E-04
       CONSTANT HEAD =       90552.4375         CONSTANT HEAD =           0.1102
                 MNW =      123157.4920                   MNW =           0.1101

            TOTAL IN =      246480.8280              TOTAL IN =           0.2205

          OUT:                                     OUT:
          ----                                     ----
             STORAGE =       92855.6328               STORAGE =       4.6582E-02
       CONSTANT HEAD =       30424.7266         CONSTANT HEAD =       6.3775E-02
                 MNW =      123157.3980                   MNW =           0.1101

           TOTAL OUT =      246437.7500             TOTAL OUT =           0.2205

            IN - OUT =          43.0664              IN - OUT =       3.5776E-05

 PERCENT DISCREPANCY =           0.02     PERCENT DISCREPANCY =           0.02






          TIME SUMMARY AT END OF TIME STEP  54 IN STRESS PERIOD    1
                    SECONDS     MINUTES      HOURS       DAYS        YEARS
                    -----------------------------------------------------------
   TIME STEP LENGTH  97969.      1632.8      27.214      1.1339     3.10445E-03
 STRESS PERIOD TIME 1.07139E+06  17856.      297.61      12.400     3.39503E-02
         TOTAL TIME 1.07139E+06  17856.      297.61      12.400     3.39503E-02
1
 
 SOLVING FOR HEAD 
     3 CALLS TO PCG ROUTINE FOR TIME STEP  55 IN STRESS PERIOD    1
    13 TOTAL ITERATIONS

 HEAD/DRAWDOWN PRINTOUT FLAG = 0     TOTAL BUDGET PRINTOUT FLAG = 1
 CELL-BY-CELL FLOW TERM FLAG = 0
 REUSING PREVIOUS VALUES OF IOFLG

 SAVING SATURATED THICKNESS AND FLOW TERMS ON UNIT  333 FOR MT3DMS
 BY THE LINK-MT3DMS PACKAGE V6.2 AT TIME STEP   55, STRESS PERIOD    1

1
  VOLUMETRIC BUDGET FOR ENTIRE MODEL AT END OF TIME STEP 55 IN STRESS PERIOD   1
  ------------------------------------------------------------------------------

     CUMULATIVE VOLUMES      L**3       RATES FOR THIS TIME STEP      L**3/T
     ------------------                 ------------------------

           IN:                                      IN:
           ---                                      ---
             STORAGE =       32770.9219               STORAGE =       2.5005E-07
       CONSTANT HEAD =      102432.3200         CONSTANT HEAD =           0.1102
                 MNW =      134987.3590                   MNW =           0.1098

            TOTAL IN =      270190.5940              TOTAL IN =           0.2200

          OUT:                                     OUT:
          ----                                     ----
             STORAGE =       97272.6172               STORAGE =       4.0987E-02
       CONSTANT HEAD =       37882.9023         CONSTANT HEAD =       6.9207E-02
                 MNW =      134987.2340                   MNW =           0.1098

           TOTAL OUT =      270142.7500             TOTAL OUT =           0.2200

            IN - OUT =          47.8477              IN - OUT =       4.4339E-05

 PERCENT DISCREPANCY =           0.02     PERCENT DISCREPANCY =           0.02






          TIME SUMMARY AT END OF TIME STEP  55 IN STRESS PERIOD    1
                    SECONDS     MINUTES      HOURS       DAYS        YEARS
                    -----------------------------------------------------------
   TIME STEP LENGTH 1.07766E+05  1796.1      29.935      1.2473     3.41490E-03
 STRESS PERIOD TIME 1.17915E+06  19653.      327.54      13.648     3.73652E-02
         TOTAL TIME 1.17915E+06  19653.      327.54      13.648     3.73652E-02
1
 
 SOLVING FOR HEAD 
     3 CALLS TO PCG ROUTINE FOR TIME STEP  56 IN STRESS PERIOD    1
    13 TOTAL ITERATIONS

 HEAD/DRAWDOWN PRINTOUT FLAG = 0     TOTAL BUDGET PRINTOUT FLAG = 1
 CELL-BY-CELL FLOW TERM FLAG = 0
 REUSING PREVIOUS VALUES OF IOFLG

 SAVING SATURATED THICKNESS AND FLOW TERMS ON UNIT  333 FOR MT3DMS
 BY THE LINK-MT3DMS PACKAGE V6.2 AT TIME STEP   56, STRESS PERIOD    1

1
  VOLUMETRIC BUDGET FOR ENTIRE MODEL AT END OF TIME STEP 56 IN STRESS PERIOD   1
  ------------------------------------------------------------------------------

     CUMULATIVE VOLUMES      L**3       RATES FOR THIS TIME STEP      L**3/T
     ------------------                 ------------------------

           IN:                                      IN:
           ---                                      ---
             STORAGE =       32770.9219               STORAGE =           0.0000
       CONSTANT HEAD =      115483.3280         CONSTANT HEAD =           0.1101
                 MNW =      147961.6560                   MNW =           0.1094

            TOTAL IN =      296215.9060              TOTAL IN =           0.2195

          OUT:                                     OUT:
          ----                                     ----
             STORAGE =      101499.6720               STORAGE =       3.5659E-02
       CONSTANT HEAD =       46702.3906         CONSTANT HEAD =       7.4399E-02
                 MNW =      147961.5160                   MNW =           0.1094

           TOTAL OUT =      296163.5620             TOTAL OUT =           0.2195

            IN - OUT =          52.3281              IN - OUT =       3.7808E-05

 PERCENT DISCREPANCY =           0.02     PERCENT DISCREPANCY =           0.02






          TIME SUMMARY AT END OF TIME STEP  56 IN STRESS PERIOD    1
                    SECONDS     MINUTES      HOURS       DAYS        YEARS
                    -----------------------------------------------------------
   TIME STEP LENGTH 1.18542E+05  1975.7      32.928      1.3720     3.75638E-03
 STRESS PERIOD TIME 1.29770E+06  21628.      360.47      15.020     4.11215E-02
         TOTAL TIME 1.29770E+06  21628.      360.47      15.020     4.11215E-02
1
 
 SOLVING FOR HEAD 
     3 CALLS TO PCG ROUTINE FOR TIME STEP  57 IN STRESS PERIOD    1
    13 TOTAL ITERATIONS

 HEAD/DRAWDOWN PRINTOUT FLAG = 0     TOTAL BUDGET PRINTOUT FLAG = 1
 CELL-BY-CELL FLOW TERM FLAG = 0
 REUSING PREVIOUS VALUES OF IOFLG

 SAVING SATURATED THICKNESS AND FLOW TERMS ON UNIT  333 FOR MT3DMS
 BY THE LINK-MT3DMS PACKAGE V6.2 AT TIME STEP   57, STRESS PERIOD    1

1
  VOLUMETRIC BUDGET FOR ENTIRE MODEL AT END OF TIME STEP 57 IN STRESS PERIOD   1
  ------------------------------------------------------------------------------

     CUMULATIVE VOLUMES      L**3       RATES FOR THIS TIME STEP      L**3/T
     ------------------                 ------------------------

           IN:                                      IN:
           ---                                      ---
             STORAGE =       32770.9219               STORAGE =           0.0000
       CONSTANT HEAD =      129809.6090         CONSTANT HEAD =           0.1099
                 MNW =      162192.9840                   MNW =           0.1091

            TOTAL IN =      324773.5000              TOTAL IN =           0.2190

          OUT:                                     OUT:
          ----                                     ----
             STORAGE =      105482.6880               STORAGE =       3.0545E-02
       CONSTANT HEAD =       57039.9375         CONSTANT HEAD =       7.9278E-02
                 MNW =      162192.8590                   MNW =           0.1091

           TOTAL OUT =      324715.5000             TOTAL OUT =           0.2190

            IN - OUT =          58.0313              IN - OUT =       4.3714E-05

 PERCENT DISCREPANCY =           0.02     PERCENT DISCREPANCY =           0.02






          TIME SUMMARY AT END OF TIME STEP  57 IN STRESS PERIOD    1
                    SECONDS     MINUTES      HOURS       DAYS        YEARS
                    -----------------------------------------------------------
   TIME STEP LENGTH 1.30397E+05  2173.3      36.221      1.5092     4.13202E-03
 STRESS PERIOD TIME 1.42809E+06  23802.      396.69      16.529     4.52536E-02
         TOTAL TIME 1.42809E+06  23802.      396.69      16.529     4.52536E-02
1
 
 SOLVING FOR HEAD 
     3 CALLS TO PCG ROUTINE FOR TIME STEP  58 IN STRESS PERIOD    1
    14 TOTAL ITERATIONS

 HEAD/DRAWDOWN PRINTOUT FLAG = 0     TOTAL BUDGET PRINTOUT FLAG = 1
 CELL-BY-CELL FLOW TERM FLAG = 0
 REUSING PREVIOUS VALUES OF IOFLG

 SAVING SATURATED THICKNESS AND FLOW TERMS ON UNIT  333 FOR MT3DMS
 BY THE LINK-MT3DMS PACKAGE V6.2 AT TIME STEP   58, STRESS PERIOD    1

1
  VOLUMETRIC BUDGET FOR ENTIRE MODEL AT END OF TIME STEP 58 IN STRESS PERIOD   1
  ------------------------------------------------------------------------------

     CUMULATIVE VOLUMES      L**3       RATES FOR THIS TIME STEP      L**3/T
     ------------------                 ------------------------

           IN:                                      IN:
           ---                                      ---
             STORAGE =       32770.9219               STORAGE =           0.0000
       CONSTANT HEAD =      145527.8910         CONSTANT HEAD =           0.1096
                 MNW =      177807.9530                   MNW =           0.1089

            TOTAL IN =      356106.7500              TOTAL IN =           0.2184

          OUT:                                     OUT:
          ----                                     ----
             STORAGE =      109177.5780               STORAGE =       2.5760E-02
       CONSTANT HEAD =       69060.0859         CONSTANT HEAD =       8.3801E-02
                 MNW =      177807.7500                   MNW =           0.1089

           TOTAL OUT =      356045.4060             TOTAL OUT =           0.2184

            IN - OUT =          61.3516              IN - OUT =       2.3123E-05

 PERCENT DISCREPANCY =           0.02     PERCENT DISCREPANCY =           0.01






          TIME SUMMARY AT END OF TIME STEP  58 IN STRESS PERIOD    1
                    SECONDS     MINUTES      HOURS       DAYS        YEARS
                    -----------------------------------------------------------
   TIME STEP LENGTH 1.43436E+05  2390.6      39.843      1.6601     4.54523E-03
 STRESS PERIOD TIME 1.57153E+06  26192.      436.54      18.189     4.97988E-02
         TOTAL TIME 1.57153E+06  26192.      436.54      18.189     4.97988E-02
1
 
 SOLVING FOR HEAD 
     3 CALLS TO PCG ROUTINE FOR TIME STEP  59 IN STRESS PERIOD    1
    13 TOTAL ITERATIONS

 HEAD/DRAWDOWN PRINTOUT FLAG = 0     TOTAL BUDGET PRINTOUT FLAG = 1
 CELL-BY-CELL FLOW TERM FLAG = 0
 REUSING PREVIOUS VALUES OF IOFLG

 SAVING SATURATED THICKNESS AND FLOW TERMS ON UNIT  333 FOR MT3DMS
 BY THE LINK-MT3DMS PACKAGE V6.2 AT TIME STEP   59, STRESS PERIOD    1

1
  VOLUMETRIC BUDGET FOR ENTIRE MODEL AT END OF TIME STEP 59 IN STRESS PERIOD   1
  ------------------------------------------------------------------------------

     CUMULATIVE VOLUMES      L**3       RATES FOR THIS TIME STEP      L**3/T
     ------------------                 ------------------------

           IN:                                      IN:
           ---                                      ---
             STORAGE =       32770.9219               STORAGE =           0.0000
       CONSTANT HEAD =      162770.0940         CONSTANT HEAD =           0.1093
                 MNW =      194944.8750                   MNW =           0.1086

            TOTAL IN =      390485.8750              TOTAL IN =           0.2179

          OUT:                                     OUT:
          ----                                     ----
             STORAGE =      112542.3670               STORAGE =       2.1326E-02
       CONSTANT HEAD =       82931.2266         CONSTANT HEAD =       8.7914E-02
                 MNW =      194944.6720                   MNW =           0.1086

           TOTAL OUT =      390418.2500             TOTAL OUT =           0.2179

            IN - OUT =          67.6250              IN - OUT =       3.9753E-05

 PERCENT DISCREPANCY =           0.02     PERCENT DISCREPANCY =           0.02






          TIME SUMMARY AT END OF TIME STEP  59 IN STRESS PERIOD    1
                    SECONDS     MINUTES      HOURS       DAYS        YEARS
                    -----------------------------------------------------------
   TIME STEP LENGTH 1.57780E+05  2629.7      43.828      1.8262     4.99975E-03
 STRESS PERIOD TIME 1.72931E+06  28822.      480.36      20.015     5.47985E-02
         TOTAL TIME 1.72931E+06  28822.      480.36      20.015     5.47985E-02
1
 
 SOLVING FOR HEAD 
     3 CALLS TO PCG ROUTINE FOR TIME STEP  60 IN STRESS PERIOD    1
    12 TOTAL ITERATIONS

 HEAD/DRAWDOWN PRINTOUT FLAG = 0     TOTAL BUDGET PRINTOUT FLAG = 1
 CELL-BY-CELL FLOW TERM FLAG = 0
 REUSING PREVIOUS VALUES OF IOFLG

 SAVING SATURATED THICKNESS AND FLOW TERMS ON UNIT  333 FOR MT3DMS
 BY THE LINK-MT3DMS PACKAGE V6.2 AT TIME STEP   60, STRESS PERIOD    1

1
  VOLUMETRIC BUDGET FOR ENTIRE MODEL AT END OF TIME STEP 60 IN STRESS PERIOD   1
  ------------------------------------------------------------------------------

     CUMULATIVE VOLUMES      L**3       RATES FOR THIS TIME STEP      L**3/T
     ------------------                 ------------------------

           IN:                                      IN:
           ---                                      ---
             STORAGE =       32770.9219               STORAGE =           0.0000
       CONSTANT HEAD =      181684.7500         CONSTANT HEAD =           0.1090
                 MNW =      213757.0160                   MNW =           0.1084

            TOTAL IN =      428212.6880              TOTAL IN =           0.2174

          OUT:                                     OUT:
          ----                                     ----
             STORAGE =      115552.3590               STORAGE =       1.7343E-02
       CONSTANT HEAD =       98828.0547         CONSTANT HEAD =       9.1594E-02
                 MNW =      213756.8910                   MNW =           0.1084

           TOTAL OUT =      428137.3120             TOTAL OUT =           0.2173

            IN - OUT =          75.3828              IN - OUT =       4.4782E-05

 PERCENT DISCREPANCY =           0.02     PERCENT DISCREPANCY =           0.02






          TIME SUMMARY AT END OF TIME STEP  60 IN STRESS PERIOD    1
                    SECONDS     MINUTES      HOURS       DAYS        YEARS
                    -----------------------------------------------------------
   TIME STEP LENGTH 1.73558E+05  2892.6      48.211      2.0088     5.49972E-03
 STRESS PERIOD TIME 1.90287E+06  31714.      528.57      22.024     6.02983E-02
         TOTAL TIME 1.90287E+06  31714.      528.57      22.024     6.02983E-02
1
 
 SOLVING FOR HEAD 
     3 CALLS TO PCG ROUTINE FOR TIME STEP  61 IN STRESS PERIOD    1
    12 TOTAL ITERATIONS

 HEAD/DRAWDOWN PRINTOUT FLAG = 0     TOTAL BUDGET PRINTOUT FLAG = 1
 CELL-BY-CELL FLOW TERM FLAG = 0
 REUSING PREVIOUS VALUES OF IOFLG

 SAVING SATURATED THICKNESS AND FLOW TERMS ON UNIT  333 FOR MT3DMS
 BY THE LINK-MT3DMS PACKAGE V6.2 AT TIME STEP   61, STRESS PERIOD    1

1
  VOLUMETRIC BUDGET FOR ENTIRE MODEL AT END OF TIME STEP 61 IN STRESS PERIOD   1
  ------------------------------------------------------------------------------

     CUMULATIVE VOLUMES      L**3       RATES FOR THIS TIME STEP      L**3/T
     ------------------                 ------------------------

           IN:                                      IN:
           ---                                      ---
             STORAGE =       32770.9219               STORAGE =           0.0000
       CONSTANT HEAD =      202436.6250         CONSTANT HEAD =           0.1087
                 MNW =      234412.8440                   MNW =           0.1082

            TOTAL IN =      469620.3750              TOTAL IN =           0.2169

          OUT:                                     OUT:
          ----                                     ----
             STORAGE =      118193.5700               STORAGE =       1.3835E-02
       CONSTANT HEAD =      116929.9220         CONSTANT HEAD =       9.4817E-02
                 MNW =      234412.7970                   MNW =           0.1082

           TOTAL OUT =      469536.2810             TOTAL OUT =           0.2168

            IN - OUT =          84.1016              IN - OUT =       4.5650E-05

 PERCENT DISCREPANCY =           0.02     PERCENT DISCREPANCY =           0.02






          TIME SUMMARY AT END OF TIME STEP  61 IN STRESS PERIOD    1
                    SECONDS     MINUTES      HOURS       DAYS        YEARS
                    -----------------------------------------------------------
   TIME STEP LENGTH 1.90914E+05  3181.9      53.032      2.2097     6.04970E-03
 STRESS PERIOD TIME 2.09378E+06  34896.      581.61      24.234     6.63480E-02
         TOTAL TIME 2.09378E+06  34896.      581.61      24.234     6.63480E-02
1
 
 SOLVING FOR HEAD 
     3 CALLS TO PCG ROUTINE FOR TIME STEP  62 IN STRESS PERIOD    1
    12 TOTAL ITERATIONS

 HEAD/DRAWDOWN PRINTOUT FLAG = 0     TOTAL BUDGET PRINTOUT FLAG = 1
 CELL-BY-CELL FLOW TERM FLAG = 0
 REUSING PREVIOUS VALUES OF IOFLG

 SAVING SATURATED THICKNESS AND FLOW TERMS ON UNIT  333 FOR MT3DMS
 BY THE LINK-MT3DMS PACKAGE V6.2 AT TIME STEP   62, STRESS PERIOD    1

1
  VOLUMETRIC BUDGET FOR ENTIRE MODEL AT END OF TIME STEP 62 IN STRESS PERIOD   1
  ------------------------------------------------------------------------------

     CUMULATIVE VOLUMES      L**3       RATES FOR THIS TIME STEP      L**3/T
     ------------------                 ------------------------

           IN:                                      IN:
           ---                                      ---
             STORAGE =       32770.9219               STORAGE =           0.0000
       CONSTANT HEAD =      225209.9690         CONSTANT HEAD =           0.1084
                 MNW =      257099.2660                   MNW =           0.1080

            TOTAL IN =      515080.1560              TOTAL IN =           0.2165

          OUT:                                     OUT:
          ----                                     ----
             STORAGE =      120463.6330               STORAGE =       1.0810E-02
       CONSTANT HEAD =      137424.0160         CONSTANT HEAD =       9.7588E-02
                 MNW =      257099.1560                   MNW =           0.1080

           TOTAL OUT =      514986.8120             TOTAL OUT =           0.2164

            IN - OUT =          93.3516              IN - OUT =       4.4144E-05

 PERCENT DISCREPANCY =           0.02     PERCENT DISCREPANCY =           0.02






          TIME SUMMARY AT END OF TIME STEP  62 IN STRESS PERIOD    1
                    SECONDS     MINUTES      HOURS       DAYS        YEARS
                    -----------------------------------------------------------
   TIME STEP LENGTH 2.10005E+05  3500.1      58.335      2.4306     6.65467E-03
 STRESS PERIOD TIME 2.30379E+06  38396.      639.94      26.664     7.30026E-02
         TOTAL TIME 2.30379E+06  38396.      639.94      26.664     7.30026E-02
1
 
 SOLVING FOR HEAD 
     3 CALLS TO PCG ROUTINE FOR TIME STEP  63 IN STRESS PERIOD    1
    11 TOTAL ITERATIONS

 HEAD/DRAWDOWN PRINTOUT FLAG = 0     TOTAL BUDGET PRINTOUT FLAG = 1
 CELL-BY-CELL FLOW TERM FLAG = 0
 REUSING PREVIOUS VALUES OF IOFLG

 SAVING SATURATED THICKNESS AND FLOW TERMS ON UNIT  333 FOR MT3DMS
 BY THE LINK-MT3DMS PACKAGE V6.2 AT TIME STEP   63, STRESS PERIOD    1

1
  VOLUMETRIC BUDGET FOR ENTIRE MODEL AT END OF TIME STEP 63 IN STRESS PERIOD   1
  ------------------------------------------------------------------------------

     CUMULATIVE VOLUMES      L**3       RATES FOR THIS TIME STEP      L**3/T
     ------------------                 ------------------------

           IN:                                      IN:
           ---                                      ---
             STORAGE =       32770.9219               STORAGE =           0.0000
       CONSTANT HEAD =      250210.2660         CONSTANT HEAD =           0.1082
                 MNW =      282020.4060                   MNW =           0.1079

            TOTAL IN =      565001.6250              TOTAL IN =           0.2161

          OUT:                                     OUT:
          ----                                     ----
             STORAGE =      122372.6020               STORAGE =       8.2637E-03
       CONSTANT HEAD =      160504.3910         CONSTANT HEAD =       9.9913E-02
                 MNW =      282020.1880                   MNW =           0.1079

           TOTAL OUT =      564897.1880             TOTAL OUT =           0.2161

            IN - OUT =         104.4141              IN - OUT =       4.7897E-05

 PERCENT DISCREPANCY =           0.02     PERCENT DISCREPANCY =           0.02






          TIME SUMMARY AT END OF TIME STEP  63 IN STRESS PERIOD    1
                    SECONDS     MINUTES      HOURS       DAYS        YEARS
                    -----------------------------------------------------------
   TIME STEP LENGTH 2.31006E+05  3850.1      64.168      2.6737     7.32013E-03
 STRESS PERIOD TIME 2.53479E+06  42247.      704.11      29.338     8.03227E-02
         TOTAL TIME 2.53479E+06  42247.      704.11      29.338     8.03227E-02
1
 
 SOLVING FOR HEAD 
     3 CALLS TO PCG ROUTINE FOR TIME STEP  64 IN STRESS PERIOD    1
    11 TOTAL ITERATIONS

 HEAD/DRAWDOWN PRINTOUT FLAG = 0     TOTAL BUDGET PRINTOUT FLAG = 1
 CELL-BY-CELL FLOW TERM FLAG = 0
 REUSING PREVIOUS VALUES OF IOFLG

 SAVING SATURATED THICKNESS AND FLOW TERMS ON UNIT  333 FOR MT3DMS
 BY THE LINK-MT3DMS PACKAGE V6.2 AT TIME STEP   64, STRESS PERIOD    1

1
  VOLUMETRIC BUDGET FOR ENTIRE MODEL AT END OF TIME STEP 64 IN STRESS PERIOD   1
  ------------------------------------------------------------------------------

     CUMULATIVE VOLUMES      L**3       RATES FOR THIS TIME STEP      L**3/T
     ------------------                 ------------------------

           IN:                                      IN:
           ---                                      ---
             STORAGE =       32770.9219               STORAGE =           0.0000
       CONSTANT HEAD =      277662.8750         CONSTANT HEAD =           0.1080
                 MNW =      309403.6560                   MNW =           0.1078

            TOTAL IN =      619837.4380              TOTAL IN =           0.2158

          OUT:                                     OUT:
          ----                                     ----
             STORAGE =      123939.2660               STORAGE =       6.1654E-03
       CONSTANT HEAD =      186379.6560         CONSTANT HEAD =           0.1018
                 MNW =      309403.4060                   MNW =           0.1078

           TOTAL OUT =      619722.3120             TOTAL OUT =           0.2158

            IN - OUT =         115.1250              IN - OUT =       4.2158E-05

 PERCENT DISCREPANCY =           0.02     PERCENT DISCREPANCY =           0.02






          TIME SUMMARY AT END OF TIME STEP  64 IN STRESS PERIOD    1
                    SECONDS     MINUTES      HOURS       DAYS        YEARS
                    -----------------------------------------------------------
   TIME STEP LENGTH 2.54106E+05  4235.1      70.585      2.9410     8.05215E-03
 STRESS PERIOD TIME 2.78890E+06  46482.      774.69      32.279     8.83749E-02
         TOTAL TIME 2.78890E+06  46482.      774.69      32.279     8.83749E-02
1
 
 SOLVING FOR HEAD 
     4 CALLS TO PCG ROUTINE FOR TIME STEP  65 IN STRESS PERIOD    1
    12 TOTAL ITERATIONS

 HEAD/DRAWDOWN PRINTOUT FLAG = 0     TOTAL BUDGET PRINTOUT FLAG = 1
 CELL-BY-CELL FLOW TERM FLAG = 0
 REUSING PREVIOUS VALUES OF IOFLG

 SAVING SATURATED THICKNESS AND FLOW TERMS ON UNIT  333 FOR MT3DMS
 BY THE LINK-MT3DMS PACKAGE V6.2 AT TIME STEP   65, STRESS PERIOD    1

1
  VOLUMETRIC BUDGET FOR ENTIRE MODEL AT END OF TIME STEP 65 IN STRESS PERIOD   1
  ------------------------------------------------------------------------------

     CUMULATIVE VOLUMES      L**3       RATES FOR THIS TIME STEP      L**3/T
     ------------------                 ------------------------

           IN:                                      IN:
           ---                                      ---
             STORAGE =       32770.9219               STORAGE =           0.0000
       CONSTANT HEAD =      307814.3750         CONSTANT HEAD =           0.1079
                 MNW =      339556.5940                   MNW =           0.1079

            TOTAL IN =      680141.8750              TOTAL IN =           0.2157

          OUT:                                     OUT:
          ----                                     ----
             STORAGE =      125194.3440               STORAGE =       4.4902E-03
       CONSTANT HEAD =      215270.5940         CONSTANT HEAD =           0.1034
                 MNW =      339556.2190                   MNW =           0.1079

           TOTAL OUT =      680021.1250             TOTAL OUT =           0.2157

            IN - OUT =         120.7344              IN - OUT =       2.0128E-05

 PERCENT DISCREPANCY =           0.02     PERCENT DISCREPANCY =           0.01






          TIME SUMMARY AT END OF TIME STEP  65 IN STRESS PERIOD    1
                    SECONDS     MINUTES      HOURS       DAYS        YEARS
                    -----------------------------------------------------------
   TIME STEP LENGTH 2.79517E+05  4658.6      77.644      3.2352     8.85736E-03
 STRESS PERIOD TIME 3.06842E+06  51140.      852.34      35.514     9.72323E-02
         TOTAL TIME 3.06842E+06  51140.      852.34      35.514     9.72323E-02
1
 
 SOLVING FOR HEAD 
     3 CALLS TO PCG ROUTINE FOR TIME STEP  66 IN STRESS PERIOD    1
    13 TOTAL ITERATIONS

 HEAD/DRAWDOWN PRINTOUT FLAG = 0     TOTAL BUDGET PRINTOUT FLAG = 1
 CELL-BY-CELL FLOW TERM FLAG = 0
 REUSING PREVIOUS VALUES OF IOFLG

 SAVING SATURATED THICKNESS AND FLOW TERMS ON UNIT  333 FOR MT3DMS
 BY THE LINK-MT3DMS PACKAGE V6.2 AT TIME STEP   66, STRESS PERIOD    1

1
  VOLUMETRIC BUDGET FOR ENTIRE MODEL AT END OF TIME STEP 66 IN STRESS PERIOD   1
  ------------------------------------------------------------------------------

     CUMULATIVE VOLUMES      L**3       RATES FOR THIS TIME STEP      L**3/T
     ------------------                 ------------------------

           IN:                                      IN:
           ---                                      ---
             STORAGE =       32770.9219               STORAGE =           0.0000
       CONSTANT HEAD =      340957.5000         CONSTANT HEAD =           0.1078
                 MNW =      372640.1250                   MNW =           0.1076

            TOTAL IN =      746368.5630              TOTAL IN =           0.2154

          OUT:                                     OUT:
          ----                                     ----
             STORAGE =      126182.7500               STORAGE =       3.2146E-03
       CONSTANT HEAD =      247426.6090         CONSTANT HEAD =           0.1046
                 MNW =      372639.7190                   MNW =           0.1076

           TOTAL OUT =      746249.0620             TOTAL OUT =           0.2154

            IN - OUT =         119.4688              IN - OUT =      -4.1823E-06

 PERCENT DISCREPANCY =           0.02     PERCENT DISCREPANCY =           0.00






          TIME SUMMARY AT END OF TIME STEP  66 IN STRESS PERIOD    1
                    SECONDS     MINUTES      HOURS       DAYS        YEARS
                    -----------------------------------------------------------
   TIME STEP LENGTH 3.07469E+05  5124.5      85.408      3.5587     9.74310E-03
 STRESS PERIOD TIME 3.37588E+06  56265.      937.75      39.073     0.10698    
         TOTAL TIME 3.37588E+06  56265.      937.75      39.073     0.10698    
1
 
 SOLVING FOR HEAD 
     2 CALLS TO PCG ROUTINE FOR TIME STEP  67 IN STRESS PERIOD    1
     5 TOTAL ITERATIONS

 HEAD/DRAWDOWN PRINTOUT FLAG = 0     TOTAL BUDGET PRINTOUT FLAG = 1
 CELL-BY-CELL FLOW TERM FLAG = 0
 REUSING PREVIOUS VALUES OF IOFLG

 SAVING SATURATED THICKNESS AND FLOW TERMS ON UNIT  333 FOR MT3DMS
 BY THE LINK-MT3DMS PACKAGE V6.2 AT TIME STEP   67, STRESS PERIOD    1

1
  VOLUMETRIC BUDGET FOR ENTIRE MODEL AT END OF TIME STEP 67 IN STRESS PERIOD   1
  ------------------------------------------------------------------------------

     CUMULATIVE VOLUMES      L**3       RATES FOR THIS TIME STEP      L**3/T
     ------------------                 ------------------------

           IN:                                      IN:
           ---                                      ---
             STORAGE =       32770.9219               STORAGE =           0.0000
       CONSTANT HEAD =      377372.2810         CONSTANT HEAD =           0.1077
                 MNW =      408877.7810                   MNW =           0.1071

            TOTAL IN =      819021.0000              TOTAL IN =           0.2148

          OUT:                                     OUT:
          ----                                     ----
             STORAGE =      126902.6950               STORAGE =       2.1287E-03
       CONSTANT HEAD =      283038.6560         CONSTANT HEAD =           0.1053
                 MNW =      408877.5620                   MNW =           0.1071

           TOTAL OUT =      818818.9380             TOTAL OUT =           0.2146

            IN - OUT =         202.0703              IN - OUT =       2.4422E-04

 PERCENT DISCREPANCY =           0.02     PERCENT DISCREPANCY =           0.11






          TIME SUMMARY AT END OF TIME STEP  67 IN STRESS PERIOD    1
                    SECONDS     MINUTES      HOURS       DAYS        YEARS
                    -----------------------------------------------------------
   TIME STEP LENGTH 3.38216E+05  5636.9      93.949      3.9145     1.07174E-02
 STRESS PERIOD TIME 3.71410E+06  61902.      1031.7      42.987     0.11769    
         TOTAL TIME 3.71410E+06  61902.      1031.7      42.987     0.11769    
1
 
 SOLVING FOR HEAD 
     3 CALLS TO PCG ROUTINE FOR TIME STEP  68 IN STRESS PERIOD    1
    15 TOTAL ITERATIONS

 HEAD/DRAWDOWN PRINTOUT FLAG = 0     TOTAL BUDGET PRINTOUT FLAG = 1
 CELL-BY-CELL FLOW TERM FLAG = 0
 REUSING PREVIOUS VALUES OF IOFLG

 SAVING SATURATED THICKNESS AND FLOW TERMS ON UNIT  333 FOR MT3DMS
 BY THE LINK-MT3DMS PACKAGE V6.2 AT TIME STEP   68, STRESS PERIOD    1

1
  VOLUMETRIC BUDGET FOR ENTIRE MODEL AT END OF TIME STEP 68 IN STRESS PERIOD   1
  ------------------------------------------------------------------------------

     CUMULATIVE VOLUMES      L**3       RATES FOR THIS TIME STEP      L**3/T
     ------------------                 ------------------------

           IN:                                      IN:
           ---                                      ---
             STORAGE =       32770.9492               STORAGE =       7.5589E-08
       CONSTANT HEAD =      417380.8440         CONSTANT HEAD =           0.1075
                 MNW =      448882.0940                   MNW =           0.1075

            TOTAL IN =      899033.8750              TOTAL IN =           0.2151

          OUT:                                     OUT:
          ----                                     ----
             STORAGE =      127442.4220               STORAGE =       1.4507E-03
       CONSTANT HEAD =      322498.8750         CONSTANT HEAD =           0.1061
                 MNW =      448881.8440                   MNW =           0.1075

           TOTAL OUT =      898823.1250             TOTAL OUT =           0.2150

            IN - OUT =         210.7461              IN - OUT =       2.3370E-05

 PERCENT DISCREPANCY =           0.02     PERCENT DISCREPANCY =           0.01






          TIME SUMMARY AT END OF TIME STEP  68 IN STRESS PERIOD    1
                    SECONDS     MINUTES      HOURS       DAYS        YEARS
                    -----------------------------------------------------------
   TIME STEP LENGTH 3.72037E+05  6200.6      103.34      4.3060     1.17891E-02
 STRESS PERIOD TIME 4.08614E+06  68102.      1135.0      47.293     0.12948    
         TOTAL TIME 4.08614E+06  68102.      1135.0      47.293     0.12948    
1
 
 SOLVING FOR HEAD 
     2 CALLS TO PCG ROUTINE FOR TIME STEP  69 IN STRESS PERIOD    1
     7 TOTAL ITERATIONS

 HEAD/DRAWDOWN PRINTOUT FLAG = 0     TOTAL BUDGET PRINTOUT FLAG = 1
 CELL-BY-CELL FLOW TERM FLAG = 0
 REUSING PREVIOUS VALUES OF IOFLG

 SAVING SATURATED THICKNESS AND FLOW TERMS ON UNIT  333 FOR MT3DMS
 BY THE LINK-MT3DMS PACKAGE V6.2 AT TIME STEP   69, STRESS PERIOD    1

1
  VOLUMETRIC BUDGET FOR ENTIRE MODEL AT END OF TIME STEP 69 IN STRESS PERIOD   1
  ------------------------------------------------------------------------------

     CUMULATIVE VOLUMES      L**3       RATES FOR THIS TIME STEP      L**3/T
     ------------------                 ------------------------

           IN:                                      IN:
           ---                                      ---
             STORAGE =       32771.1680               STORAGE =       5.3832E-07
       CONSTANT HEAD =      461380.8440         CONSTANT HEAD =           0.1075
                 MNW =      492882.5630                   MNW =           0.1075

            TOTAL IN =      987034.5620              TOTAL IN =           0.2150

          OUT:                                     OUT:
          ----                                     ----
             STORAGE =      127827.5620               STORAGE =       9.4111E-04
       CONSTANT HEAD =      366085.4380         CONSTANT HEAD =           0.1065
                 MNW =      492882.4380                   MNW =           0.1075

           TOTAL OUT =      986795.4380             TOTAL OUT =           0.2150

            IN - OUT =         239.1367              IN - OUT =       6.9315E-05

 PERCENT DISCREPANCY =           0.02     PERCENT DISCREPANCY =           0.03






          TIME SUMMARY AT END OF TIME STEP  69 IN STRESS PERIOD    1
                    SECONDS     MINUTES      HOURS       DAYS        YEARS
                    -----------------------------------------------------------
   TIME STEP LENGTH 4.09241E+05  6820.7      113.68      4.7366     1.29681E-02
 STRESS PERIOD TIME 4.49538E+06  74923.      1248.7      52.030     0.14245    
         TOTAL TIME 4.49538E+06  74923.      1248.7      52.030     0.14245    
1
 
 SOLVING FOR HEAD 
     3 CALLS TO PCG ROUTINE FOR TIME STEP  70 IN STRESS PERIOD    1
     8 TOTAL ITERATIONS

 HEAD/DRAWDOWN PRINTOUT FLAG = 0     TOTAL BUDGET PRINTOUT FLAG = 1
 CELL-BY-CELL FLOW TERM FLAG = 0
 REUSING PREVIOUS VALUES OF IOFLG

 SAVING SATURATED THICKNESS AND FLOW TERMS ON UNIT  333 FOR MT3DMS
 BY THE LINK-MT3DMS PACKAGE V6.2 AT TIME STEP   70, STRESS PERIOD    1

1
  VOLUMETRIC BUDGET FOR ENTIRE MODEL AT END OF TIME STEP 70 IN STRESS PERIOD   1
  ------------------------------------------------------------------------------

     CUMULATIVE VOLUMES      L**3       RATES FOR THIS TIME STEP      L**3/T
     ------------------                 ------------------------

           IN:                                      IN:
           ---                                      ---
             STORAGE =       32771.2461               STORAGE =       1.7619E-07
       CONSTANT HEAD =      509777.9060         CONSTANT HEAD =           0.1075
                 MNW =      541256.3120                   MNW =           0.1075

            TOTAL IN =     1083805.5000              TOTAL IN =           0.2150

          OUT:                                     OUT:
          ----                                     ----
             STORAGE =      128100.8980               STORAGE =       6.0719E-04
       CONSTANT HEAD =      414211.1250         CONSTANT HEAD =           0.1069
                 MNW =      541255.9380                   MNW =           0.1075

           TOTAL OUT =     1083568.0000             TOTAL OUT =           0.2150

            IN - OUT =         237.5039              IN - OUT =      -3.5660E-06

 PERCENT DISCREPANCY =           0.02     PERCENT DISCREPANCY =           0.00






          TIME SUMMARY AT END OF TIME STEP  70 IN STRESS PERIOD    1
                    SECONDS     MINUTES      HOURS       DAYS        YEARS
                    -----------------------------------------------------------
   TIME STEP LENGTH 4.50165E+05  7502.7      125.05      5.2102     1.42649E-02
 STRESS PERIOD TIME 4.94554E+06  82426.      1373.8      57.240     0.15671    
         TOTAL TIME 4.94554E+06  82426.      1373.8      57.240     0.15671    
1
 
 SOLVING FOR HEAD 
     2 CALLS TO PCG ROUTINE FOR TIME STEP  71 IN STRESS PERIOD    1
     5 TOTAL ITERATIONS

 HEAD/DRAWDOWN PRINTOUT FLAG = 0     TOTAL BUDGET PRINTOUT FLAG = 1
 CELL-BY-CELL FLOW TERM FLAG = 0
 REUSING PREVIOUS VALUES OF IOFLG

 SAVING SATURATED THICKNESS AND FLOW TERMS ON UNIT  333 FOR MT3DMS
 BY THE LINK-MT3DMS PACKAGE V6.2 AT TIME STEP   71, STRESS PERIOD    1

1
  VOLUMETRIC BUDGET FOR ENTIRE MODEL AT END OF TIME STEP 71 IN STRESS PERIOD   1
  ------------------------------------------------------------------------------

     CUMULATIVE VOLUMES      L**3       RATES FOR THIS TIME STEP      L**3/T
     ------------------                 ------------------------

           IN:                                      IN:
           ---                                      ---
             STORAGE =       32771.2461               STORAGE =       1.7400E-11
       CONSTANT HEAD =      562994.3120         CONSTANT HEAD =           0.1075
                 MNW =      594590.4380                   MNW =           0.1077

            TOTAL IN =     1190356.0000              TOTAL IN =           0.2152

          OUT:                                     OUT:
          ----                                     ----
             STORAGE =      128266.2190               STORAGE =       3.3385E-04
       CONSTANT HEAD =      467231.2810         CONSTANT HEAD =           0.1071
                 MNW =      594590.2500                   MNW =           0.1077

           TOTAL OUT =     1190087.7500             TOTAL OUT =           0.2151

            IN - OUT =         268.2461              IN - OUT =       6.2117E-05

 PERCENT DISCREPANCY =           0.02     PERCENT DISCREPANCY =           0.03






          TIME SUMMARY AT END OF TIME STEP  71 IN STRESS PERIOD    1
                    SECONDS     MINUTES      HOURS       DAYS        YEARS
                    -----------------------------------------------------------
   TIME STEP LENGTH 4.95181E+05  8253.0      137.55      5.7313     1.56914E-02
 STRESS PERIOD TIME 5.44072E+06  90679.      1511.3      62.971     0.17241    
         TOTAL TIME 5.44072E+06  90679.      1511.3      62.971     0.17241    
1
 
 SOLVING FOR HEAD 
     3 CALLS TO PCG ROUTINE FOR TIME STEP  72 IN STRESS PERIOD    1
    11 TOTAL ITERATIONS

 HEAD/DRAWDOWN PRINTOUT FLAG = 0     TOTAL BUDGET PRINTOUT FLAG = 1
 CELL-BY-CELL FLOW TERM FLAG = 0
 REUSING PREVIOUS VALUES OF IOFLG

 SAVING SATURATED THICKNESS AND FLOW TERMS ON UNIT  333 FOR MT3DMS
 BY THE LINK-MT3DMS PACKAGE V6.2 AT TIME STEP   72, STRESS PERIOD    1

1
  VOLUMETRIC BUDGET FOR ENTIRE MODEL AT END OF TIME STEP 72 IN STRESS PERIOD   1
  ------------------------------------------------------------------------------

     CUMULATIVE VOLUMES      L**3       RATES FOR THIS TIME STEP      L**3/T
     ------------------                 ------------------------

           IN:                                      IN:
           ---                                      ---
             STORAGE =       32778.0039               STORAGE =       1.2409E-05
       CONSTANT HEAD =      621563.3120         CONSTANT HEAD =           0.1075
                 MNW =      653102.8750                   MNW =           0.1074

            TOTAL IN =     1307444.2500              TOTAL IN =           0.2150

          OUT:                                     OUT:
          ----                                     ----
             STORAGE =      128418.9220               STORAGE =       2.8035E-04
       CONSTANT HEAD =      525666.3750         CONSTANT HEAD =           0.1073
                 MNW =      653102.3750                   MNW =           0.1074

           TOTAL OUT =     1307187.6200             TOTAL OUT =           0.2150

            IN - OUT =         256.5195              IN - OUT =      -2.1654E-05

 PERCENT DISCREPANCY =           0.02     PERCENT DISCREPANCY =          -0.01






          TIME SUMMARY AT END OF TIME STEP  72 IN STRESS PERIOD    1
                    SECONDS     MINUTES      HOURS       DAYS        YEARS
                    -----------------------------------------------------------
   TIME STEP LENGTH 5.44700E+05  9078.3      151.31      6.3044     1.72605E-02
 STRESS PERIOD TIME 5.98542E+06  99757.      1662.6      69.276     0.18967    
         TOTAL TIME 5.98542E+06  99757.      1662.6      69.276     0.18967    
1
 
 SOLVING FOR HEAD 
     1 CALLS TO PCG ROUTINE FOR TIME STEP  73 IN STRESS PERIOD    1
     1 TOTAL ITERATIONS

 HEAD/DRAWDOWN PRINTOUT FLAG = 0     TOTAL BUDGET PRINTOUT FLAG = 1
 CELL-BY-CELL FLOW TERM FLAG = 0
 REUSING PREVIOUS VALUES OF IOFLG

 SAVING SATURATED THICKNESS AND FLOW TERMS ON UNIT  333 FOR MT3DMS
 BY THE LINK-MT3DMS PACKAGE V6.2 AT TIME STEP   73, STRESS PERIOD    1

1
  VOLUMETRIC BUDGET FOR ENTIRE MODEL AT END OF TIME STEP 73 IN STRESS PERIOD   1
  ------------------------------------------------------------------------------

     CUMULATIVE VOLUMES      L**3       RATES FOR THIS TIME STEP      L**3/T
     ------------------                 ------------------------

           IN:                                      IN:
           ---                                      ---
             STORAGE =       32778.2656               STORAGE =       4.3464E-07
       CONSTANT HEAD =      685985.6250         CONSTANT HEAD =           0.1075
                 MNW =      717470.6880                   MNW =           0.1074

            TOTAL IN =     1436234.6300              TOTAL IN =           0.2149

          OUT:                                     OUT:
          ----                                     ----
             STORAGE =      128423.2110               STORAGE =       7.1557E-06
       CONSTANT HEAD =      589947.1250         CONSTANT HEAD =           0.1073
                 MNW =      717470.3750                   MNW =           0.1074

           TOTAL OUT =     1435840.7500             TOTAL OUT =           0.2147

            IN - OUT =         393.8672              IN - OUT =       2.2928E-04

 PERCENT DISCREPANCY =           0.03     PERCENT DISCREPANCY =           0.11






          TIME SUMMARY AT END OF TIME STEP  73 IN STRESS PERIOD    1
                    SECONDS     MINUTES      HOURS       DAYS        YEARS
                    -----------------------------------------------------------
   TIME STEP LENGTH 5.99170E+05  9986.2      166.44      6.9348     1.89865E-02
 STRESS PERIOD TIME 6.58459E+06 1.09743E+05  1829.1      76.211     0.20865    
         TOTAL TIME 6.58459E+06 1.09743E+05  1829.1      76.211     0.20865    
1
 
 SOLVING FOR HEAD 
     3 CALLS TO PCG ROUTINE FOR TIME STEP  74 IN STRESS PERIOD    1
     8 TOTAL ITERATIONS

 HEAD/DRAWDOWN PRINTOUT FLAG = 0     TOTAL BUDGET PRINTOUT FLAG = 1
 CELL-BY-CELL FLOW TERM FLAG = 0
 REUSING PREVIOUS VALUES OF IOFLG

 SAVING SATURATED THICKNESS AND FLOW TERMS ON UNIT  333 FOR MT3DMS
 BY THE LINK-MT3DMS PACKAGE V6.2 AT TIME STEP   74, STRESS PERIOD    1

1
  VOLUMETRIC BUDGET FOR ENTIRE MODEL AT END OF TIME STEP 74 IN STRESS PERIOD   1
  ------------------------------------------------------------------------------

     CUMULATIVE VOLUMES      L**3       RATES FOR THIS TIME STEP      L**3/T
     ------------------                 ------------------------

           IN:                                      IN:
           ---                                      ---
             STORAGE =       32779.5234               STORAGE =       1.9097E-06
       CONSTANT HEAD =      756791.3750         CONSTANT HEAD =           0.1074
                 MNW =      788298.6250                   MNW =           0.1075

            TOTAL IN =     1577869.5000              TOTAL IN =           0.2149

          OUT:                                     OUT:
          ----                                     ----
             STORAGE =      128473.5940               STORAGE =       7.6449E-05
       CONSTANT HEAD =      660700.0000         CONSTANT HEAD =           0.1073
                 MNW =      788298.4380                   MNW =           0.1075

           TOTAL OUT =     1577472.0000             TOTAL OUT =           0.2149

            IN - OUT =         397.4922              IN - OUT =       5.4648E-06

 PERCENT DISCREPANCY =           0.03     PERCENT DISCREPANCY =           0.00






          TIME SUMMARY AT END OF TIME STEP  74 IN STRESS PERIOD    1
                    SECONDS     MINUTES      HOURS       DAYS        YEARS
                    -----------------------------------------------------------
   TIME STEP LENGTH 6.59087E+05  10985.      183.08      7.6283     2.08852E-02
 STRESS PERIOD TIME 7.24368E+06 1.20728E+05  2012.1      83.839     0.22954    
         TOTAL TIME 7.24368E+06 1.20728E+05  2012.1      83.839     0.22954    
1
 
 SOLVING FOR HEAD 
     1 CALLS TO PCG ROUTINE FOR TIME STEP  75 IN STRESS PERIOD    1
     1 TOTAL ITERATIONS

 HEAD/DRAWDOWN PRINTOUT FLAG = 0     TOTAL BUDGET PRINTOUT FLAG = 1
 CELL-BY-CELL FLOW TERM FLAG = 0
 REUSING PREVIOUS VALUES OF IOFLG

 SAVING SATURATED THICKNESS AND FLOW TERMS ON UNIT  333 FOR MT3DMS
 BY THE LINK-MT3DMS PACKAGE V6.2 AT TIME STEP   75, STRESS PERIOD    1

1
  VOLUMETRIC BUDGET FOR ENTIRE MODEL AT END OF TIME STEP 75 IN STRESS PERIOD   1
  ------------------------------------------------------------------------------

     CUMULATIVE VOLUMES      L**3       RATES FOR THIS TIME STEP      L**3/T
     ------------------                 ------------------------

           IN:                                      IN:
           ---                                      ---
             STORAGE =       32780.1680               STORAGE =       8.8834E-07
       CONSTANT HEAD =      834680.1880         CONSTANT HEAD =           0.1074
                 MNW =      866211.2500                   MNW =           0.1075

            TOTAL IN =     1733671.6300              TOTAL IN =           0.2149

          OUT:                                     OUT:
          ----                                     ----
             STORAGE =      128478.4450               STORAGE =       6.6959E-06
       CONSTANT HEAD =      738529.8750         CONSTANT HEAD =           0.1074
                 MNW =      866210.8750                   MNW =           0.1075

           TOTAL OUT =     1733219.2500             TOTAL OUT =           0.2148

            IN - OUT =         452.4102              IN - OUT =       7.5665E-05

 PERCENT DISCREPANCY =           0.03     PERCENT DISCREPANCY =           0.04






          TIME SUMMARY AT END OF TIME STEP  75 IN STRESS PERIOD    1
                    SECONDS     MINUTES      HOURS       DAYS        YEARS
                    -----------------------------------------------------------
   TIME STEP LENGTH 7.24995E+05  12083.      201.39      8.3911     2.29737E-02
 STRESS PERIOD TIME 7.96868E+06 1.32811E+05  2213.5      92.230     0.25251    
         TOTAL TIME 7.96868E+06 1.32811E+05  2213.5      92.230     0.25251    
1
 
 SOLVING FOR HEAD 
     2 CALLS TO PCG ROUTINE FOR TIME STEP  76 IN STRESS PERIOD    1
     3 TOTAL ITERATIONS

 HEAD/DRAWDOWN PRINTOUT FLAG = 0     TOTAL BUDGET PRINTOUT FLAG = 1
 CELL-BY-CELL FLOW TERM FLAG = 0
 REUSING PREVIOUS VALUES OF IOFLG

 SAVING SATURATED THICKNESS AND FLOW TERMS ON UNIT  333 FOR MT3DMS
 BY THE LINK-MT3DMS PACKAGE V6.2 AT TIME STEP   76, STRESS PERIOD    1

1
  VOLUMETRIC BUDGET FOR ENTIRE MODEL AT END OF TIME STEP 76 IN STRESS PERIOD   1
  ------------------------------------------------------------------------------

     CUMULATIVE VOLUMES      L**3       RATES FOR THIS TIME STEP      L**3/T
     ------------------                 ------------------------

           IN:                                      IN:
           ---                                      ---
             STORAGE =       32781.1719               STORAGE =       1.2581E-06
       CONSTANT HEAD =      920360.3120         CONSTANT HEAD =           0.1074
                 MNW =      952055.8120                   MNW =           0.1076

            TOTAL IN =     1905197.2500              TOTAL IN =           0.2151

          OUT:                                     OUT:
          ----                                     ----
             STORAGE =      128492.8670               STORAGE =       1.8082E-05
       CONSTANT HEAD =      824151.0000         CONSTANT HEAD =           0.1074
                 MNW =      952054.6250                   MNW =           0.1076

           TOTAL OUT =     1904698.5000             TOTAL OUT =           0.2150

            IN - OUT =         498.8047              IN - OUT =       5.8099E-05

 PERCENT DISCREPANCY =           0.03     PERCENT DISCREPANCY =           0.03






          TIME SUMMARY AT END OF TIME STEP  76 IN STRESS PERIOD    1
                    SECONDS     MINUTES      HOURS       DAYS        YEARS
                    -----------------------------------------------------------
   TIME STEP LENGTH 7.97495E+05  13292.      221.53      9.2303     2.52711E-02
 STRESS PERIOD TIME 8.76617E+06 1.46103E+05  2435.0      101.46     0.27778    
         TOTAL TIME 8.76617E+06 1.46103E+05  2435.0      101.46     0.27778    
1
 
 SOLVING FOR HEAD 
     3 CALLS TO PCG ROUTINE FOR TIME STEP  77 IN STRESS PERIOD    1
    11 TOTAL ITERATIONS

 HEAD/DRAWDOWN PRINTOUT FLAG = 0     TOTAL BUDGET PRINTOUT FLAG = 1
 CELL-BY-CELL FLOW TERM FLAG = 0
 REUSING PREVIOUS VALUES OF IOFLG

 SAVING SATURATED THICKNESS AND FLOW TERMS ON UNIT  333 FOR MT3DMS
 BY THE LINK-MT3DMS PACKAGE V6.2 AT TIME STEP   77, STRESS PERIOD    1

1
  VOLUMETRIC BUDGET FOR ENTIRE MODEL AT END OF TIME STEP 77 IN STRESS PERIOD   1
  ------------------------------------------------------------------------------

     CUMULATIVE VOLUMES      L**3       RATES FOR THIS TIME STEP      L**3/T
     ------------------                 ------------------------

           IN:                                      IN:
           ---                                      ---
             STORAGE =       32787.0938               STORAGE =       6.7525E-06
       CONSTANT HEAD =     1014663.3800         CONSTANT HEAD =           0.1075
                 MNW =     1046283.0600                   MNW =           0.1074

            TOTAL IN =     2093733.5000              TOTAL IN =           0.2149

          OUT:                                     OUT:
          ----                                     ----
             STORAGE =      128562.6330               STORAGE =       7.9531E-05
       CONSTANT HEAD =      918416.9380         CONSTANT HEAD =           0.1075
                 MNW =     1046282.1900                   MNW =           0.1074

           TOTAL OUT =     2093261.7500             TOTAL OUT =           0.2149

            IN - OUT =         471.7734              IN - OUT =      -3.0750E-05

 PERCENT DISCREPANCY =           0.02     PERCENT DISCREPANCY =          -0.01






          TIME SUMMARY AT END OF TIME STEP  77 IN STRESS PERIOD    1
                    SECONDS     MINUTES      HOURS       DAYS        YEARS
                    -----------------------------------------------------------
   TIME STEP LENGTH 8.77244E+05  14621.      243.68      10.153     2.77982E-02
 STRESS PERIOD TIME 9.64342E+06 1.60724E+05  2678.7      111.61     0.30558    
         TOTAL TIME 9.64342E+06 1.60724E+05  2678.7      111.61     0.30558    
1
 
 SOLVING FOR HEAD 
     1 CALLS TO PCG ROUTINE FOR TIME STEP  78 IN STRESS PERIOD    1
     1 TOTAL ITERATIONS

 HEAD/DRAWDOWN PRINTOUT FLAG = 0     TOTAL BUDGET PRINTOUT FLAG = 1
 CELL-BY-CELL FLOW TERM FLAG = 0
 REUSING PREVIOUS VALUES OF IOFLG

 SAVING SATURATED THICKNESS AND FLOW TERMS ON UNIT  333 FOR MT3DMS
 BY THE LINK-MT3DMS PACKAGE V6.2 AT TIME STEP   78, STRESS PERIOD    1

1
  VOLUMETRIC BUDGET FOR ENTIRE MODEL AT END OF TIME STEP 78 IN STRESS PERIOD   1
  ------------------------------------------------------------------------------

     CUMULATIVE VOLUMES      L**3       RATES FOR THIS TIME STEP      L**3/T
     ------------------                 ------------------------

           IN:                                      IN:
           ---                                      ---
             STORAGE =       32789.3633               STORAGE =       2.3522E-06
       CONSTANT HEAD =     1118391.7500         CONSTANT HEAD =           0.1075
                 MNW =     1149942.2500                   MNW =           0.1074

            TOTAL IN =     2301123.2500              TOTAL IN =           0.2149

          OUT:                                     OUT:
          ----                                     ----
             STORAGE =      128564.2030               STORAGE =       1.6268E-06
       CONSTANT HEAD =     1022107.8800         CONSTANT HEAD =           0.1075
                 MNW =     1149941.7500                   MNW =           0.1074

           TOTAL OUT =     2300613.7500             TOTAL OUT =           0.2149

            IN - OUT =         509.5352              IN - OUT =       3.9252E-05

 PERCENT DISCREPANCY =           0.02     PERCENT DISCREPANCY =           0.02






          TIME SUMMARY AT END OF TIME STEP  78 IN STRESS PERIOD    1
                    SECONDS     MINUTES      HOURS       DAYS        YEARS
                    -----------------------------------------------------------
   TIME STEP LENGTH 9.64969E+05  16083.      268.05      11.169     3.05780E-02
 STRESS PERIOD TIME 1.06084E+07 1.76806E+05  2946.8      122.78     0.33616    
         TOTAL TIME 1.06084E+07 1.76806E+05  2946.8      122.78     0.33616    
1
 
 SOLVING FOR HEAD 
     3 CALLS TO PCG ROUTINE FOR TIME STEP  79 IN STRESS PERIOD    1
     8 TOTAL ITERATIONS

 HEAD/DRAWDOWN PRINTOUT FLAG = 0     TOTAL BUDGET PRINTOUT FLAG = 1
 CELL-BY-CELL FLOW TERM FLAG = 0
 REUSING PREVIOUS VALUES OF IOFLG

 SAVING SATURATED THICKNESS AND FLOW TERMS ON UNIT  333 FOR MT3DMS
 BY THE LINK-MT3DMS PACKAGE V6.2 AT TIME STEP   79, STRESS PERIOD    1

1
  VOLUMETRIC BUDGET FOR ENTIRE MODEL AT END OF TIME STEP 79 IN STRESS PERIOD   1
  ------------------------------------------------------------------------------

     CUMULATIVE VOLUMES      L**3       RATES FOR THIS TIME STEP      L**3/T
     ------------------                 ------------------------

           IN:                                      IN:
           ---                                      ---
             STORAGE =       32817.4883               STORAGE =       2.6496E-05
       CONSTANT HEAD =     1232405.1300         CONSTANT HEAD =           0.1074
                 MNW =     1264010.6200                   MNW =           0.1075

            TOTAL IN =     2529233.2500              TOTAL IN =           0.2149

          OUT:                                     OUT:
          ----                                     ----
             STORAGE =      128575.5550               STORAGE =       1.0692E-05
       CONSTANT HEAD =     1136133.2500         CONSTANT HEAD =           0.1074
                 MNW =     1264010.0000                   MNW =           0.1075

           TOTAL OUT =     2528718.7500             TOTAL OUT =           0.2149

            IN - OUT =         514.4336              IN - OUT =       4.7027E-06

 PERCENT DISCREPANCY =           0.02     PERCENT DISCREPANCY =           0.00






          TIME SUMMARY AT END OF TIME STEP  79 IN STRESS PERIOD    1
                    SECONDS     MINUTES      HOURS       DAYS        YEARS
                    -----------------------------------------------------------
   TIME STEP LENGTH 1.06147E+06  17691.      294.85      12.285     3.36358E-02
 STRESS PERIOD TIME 1.16698E+07 1.94498E+05  3241.6      135.07     0.36980    
         TOTAL TIME 1.16698E+07 1.94498E+05  3241.6      135.07     0.36980    
1
 
 SOLVING FOR HEAD 
     1 CALLS TO PCG ROUTINE FOR TIME STEP  80 IN STRESS PERIOD    1
     1 TOTAL ITERATIONS

 HEAD/DRAWDOWN PRINTOUT FLAG = 0     TOTAL BUDGET PRINTOUT FLAG = 1
 CELL-BY-CELL FLOW TERM FLAG = 0
 REUSING PREVIOUS VALUES OF IOFLG

 SAVING SATURATED THICKNESS AND FLOW TERMS ON UNIT  333 FOR MT3DMS
 BY THE LINK-MT3DMS PACKAGE V6.2 AT TIME STEP   80, STRESS PERIOD    1

1
  VOLUMETRIC BUDGET FOR ENTIRE MODEL AT END OF TIME STEP 80 IN STRESS PERIOD   1
  ------------------------------------------------------------------------------

     CUMULATIVE VOLUMES      L**3       RATES FOR THIS TIME STEP      L**3/T
     ------------------                 ------------------------

           IN:                                      IN:
           ---                                      ---
             STORAGE =       32818.3398               STORAGE =       7.3057E-07
       CONSTANT HEAD =     1357825.6200         CONSTANT HEAD =           0.1074
                 MNW =     1389486.5000                   MNW =           0.1075

            TOTAL IN =     2780130.5000              TOTAL IN =           0.2149

          OUT:                                     OUT:
          ----                                     ----
             STORAGE =      128577.6720               STORAGE =       1.8109E-06
       CONSTANT HEAD =     1261561.5000         CONSTANT HEAD =           0.1074
                 MNW =     1389486.2500                   MNW =           0.1075

           TOTAL OUT =     2779625.5000             TOTAL OUT =           0.2149

            IN - OUT =         505.0430              IN - OUT =      -8.0317E-06

 PERCENT DISCREPANCY =           0.02     PERCENT DISCREPANCY =           0.00






          TIME SUMMARY AT END OF TIME STEP  80 IN STRESS PERIOD    1
                    SECONDS     MINUTES      HOURS       DAYS        YEARS
                    -----------------------------------------------------------
   TIME STEP LENGTH 1.16761E+06  19460.      324.34      13.514     3.69994E-02
 STRESS PERIOD TIME 1.28375E+07 2.13958E+05  3566.0      148.58     0.40679    
         TOTAL TIME 1.28375E+07 2.13958E+05  3566.0      148.58     0.40679    
1
 
 SOLVING FOR HEAD 
     1 CALLS TO PCG ROUTINE FOR TIME STEP  81 IN STRESS PERIOD    1
     1 TOTAL ITERATIONS

 HEAD/DRAWDOWN PRINTOUT FLAG = 0     TOTAL BUDGET PRINTOUT FLAG = 1
 CELL-BY-CELL FLOW TERM FLAG = 0
 REUSING PREVIOUS VALUES OF IOFLG

 SAVING SATURATED THICKNESS AND FLOW TERMS ON UNIT  333 FOR MT3DMS
 BY THE LINK-MT3DMS PACKAGE V6.2 AT TIME STEP   81, STRESS PERIOD    1

1
  VOLUMETRIC BUDGET FOR ENTIRE MODEL AT END OF TIME STEP 81 IN STRESS PERIOD   1
  ------------------------------------------------------------------------------

     CUMULATIVE VOLUMES      L**3       RATES FOR THIS TIME STEP      L**3/T
     ------------------                 ------------------------

           IN:                                      IN:
           ---                                      ---
             STORAGE =       32819.1016               STORAGE =       5.9155E-07
       CONSTANT HEAD =     1495792.0000         CONSTANT HEAD =           0.1074
                 MNW =     1527483.0000                   MNW =           0.1074

            TOTAL IN =     3056094.0000              TOTAL IN =           0.2149

          OUT:                                     OUT:
          ----                                     ----
             STORAGE =      128579.2500               STORAGE =       1.2304E-06
       CONSTANT HEAD =     1399533.0000         CONSTANT HEAD =           0.1074
                 MNW =     1527482.6200                   MNW =           0.1074

           TOTAL OUT =     3055595.0000             TOTAL OUT =           0.2149

            IN - OUT =         499.2266              IN - OUT =      -4.5952E-06

 PERCENT DISCREPANCY =           0.02     PERCENT DISCREPANCY =           0.00






          TIME SUMMARY AT END OF TIME STEP  81 IN STRESS PERIOD    1
                    SECONDS     MINUTES      HOURS       DAYS        YEARS
                    -----------------------------------------------------------
   TIME STEP LENGTH 1.28437E+06  21406.      356.77      14.865     4.06993E-02
 STRESS PERIOD TIME 1.41218E+07 2.35364E+05  3922.7      163.45     0.44749    
         TOTAL TIME 1.41218E+07 2.35364E+05  3922.7      163.45     0.44749    
1
 
 SOLVING FOR HEAD 
     5 CALLS TO PCG ROUTINE FOR TIME STEP  82 IN STRESS PERIOD    1
    15 TOTAL ITERATIONS

 HEAD/DRAWDOWN PRINTOUT FLAG = 0     TOTAL BUDGET PRINTOUT FLAG = 1
 CELL-BY-CELL FLOW TERM FLAG = 0
 REUSING PREVIOUS VALUES OF IOFLG

 SAVING SATURATED THICKNESS AND FLOW TERMS ON UNIT  333 FOR MT3DMS
 BY THE LINK-MT3DMS PACKAGE V6.2 AT TIME STEP   82, STRESS PERIOD    1

1
  VOLUMETRIC BUDGET FOR ENTIRE MODEL AT END OF TIME STEP 82 IN STRESS PERIOD   1
  ------------------------------------------------------------------------------

     CUMULATIVE VOLUMES      L**3       RATES FOR THIS TIME STEP      L**3/T
     ------------------                 ------------------------

           IN:                                      IN:
           ---                                      ---
             STORAGE =       32822.1367               STORAGE =       2.1478E-06
       CONSTANT HEAD =     1647578.1300         CONSTANT HEAD =           0.1074
                 MNW =     1679303.0000                   MNW =           0.1075

            TOTAL IN =     3359703.2500              TOTAL IN =           0.2149

          OUT:                                     OUT:
          ----                                     ----
             STORAGE =      128584.4840               STORAGE =       3.7076E-06
       CONSTANT HEAD =     1551298.8800         CONSTANT HEAD =           0.1074
                 MNW =     1679301.5000                   MNW =           0.1075

           TOTAL OUT =     3359184.7500             TOTAL OUT =           0.2149

            IN - OUT =         518.4023              IN - OUT =       1.3580E-05

 PERCENT DISCREPANCY =           0.02     PERCENT DISCREPANCY =           0.01






          TIME SUMMARY AT END OF TIME STEP  82 IN STRESS PERIOD    1
                    SECONDS     MINUTES      HOURS       DAYS        YEARS
                    -----------------------------------------------------------
   TIME STEP LENGTH 1.41281E+06  23547.      392.45      16.352     4.47693E-02
 STRESS PERIOD TIME 1.55346E+07 2.58911E+05  4315.2      179.80     0.49226    
         TOTAL TIME 1.55346E+07 2.58911E+05  4315.2      179.80     0.49226    
1
 
 SOLVING FOR HEAD 
     5 CALLS TO PCG ROUTINE FOR TIME STEP  83 IN STRESS PERIOD    1
    16 TOTAL ITERATIONS

 HEAD/DRAWDOWN PRINTOUT FLAG = 0     TOTAL BUDGET PRINTOUT FLAG = 1
 CELL-BY-CELL FLOW TERM FLAG = 0
 REUSING PREVIOUS VALUES OF IOFLG

 SAVING SATURATED THICKNESS AND FLOW TERMS ON UNIT  333 FOR MT3DMS
 BY THE LINK-MT3DMS PACKAGE V6.2 AT TIME STEP   83, STRESS PERIOD    1

1
  VOLUMETRIC BUDGET FOR ENTIRE MODEL AT END OF TIME STEP 83 IN STRESS PERIOD   1
  ------------------------------------------------------------------------------

     CUMULATIVE VOLUMES      L**3       RATES FOR THIS TIME STEP      L**3/T
     ------------------                 ------------------------

           IN:                                      IN:
           ---                                      ---
             STORAGE =       32824.8789               STORAGE =       1.7633E-06
       CONSTANT HEAD =     1814589.2500         CONSTANT HEAD =           0.1075
                 MNW =     1846240.2500                   MNW =           0.1074

            TOTAL IN =     3693654.5000              TOTAL IN =           0.2149

          OUT:                                     OUT:
          ----                                     ----
             STORAGE =      128609.0080               STORAGE =       1.5778E-05
       CONSTANT HEAD =     1718299.5000         CONSTANT HEAD =           0.1075
                 MNW =     1846238.6200                   MNW =           0.1074

           TOTAL OUT =     3693147.2500             TOTAL OUT =           0.2149

            IN - OUT =         507.2461              IN - OUT =      -7.2123E-06

 PERCENT DISCREPANCY =           0.01     PERCENT DISCREPANCY =           0.00






          TIME SUMMARY AT END OF TIME STEP  83 IN STRESS PERIOD    1
                    SECONDS     MINUTES      HOURS       DAYS        YEARS
                    -----------------------------------------------------------
   TIME STEP LENGTH 1.55409E+06  25902.      431.69      17.987     4.92462E-02
 STRESS PERIOD TIME 1.70887E+07 2.84812E+05  4746.9      197.79     0.54151    
         TOTAL TIME 1.70887E+07 2.84812E+05  4746.9      197.79     0.54151    
1
 
 SOLVING FOR HEAD 
     1 CALLS TO PCG ROUTINE FOR TIME STEP  84 IN STRESS PERIOD    1
     1 TOTAL ITERATIONS

 HEAD/DRAWDOWN PRINTOUT FLAG = 0     TOTAL BUDGET PRINTOUT FLAG = 1
 CELL-BY-CELL FLOW TERM FLAG = 0
 REUSING PREVIOUS VALUES OF IOFLG

 SAVING SATURATED THICKNESS AND FLOW TERMS ON UNIT  333 FOR MT3DMS
 BY THE LINK-MT3DMS PACKAGE V6.2 AT TIME STEP   84, STRESS PERIOD    1

1
  VOLUMETRIC BUDGET FOR ENTIRE MODEL AT END OF TIME STEP 84 IN STRESS PERIOD   1
  ------------------------------------------------------------------------------

     CUMULATIVE VOLUMES      L**3       RATES FOR THIS TIME STEP      L**3/T
     ------------------                 ------------------------

           IN:                                      IN:
           ---                                      ---
             STORAGE =       32826.9297               STORAGE =       1.1998E-06
       CONSTANT HEAD =     1998295.2500         CONSTANT HEAD =           0.1075
                 MNW =     2029910.6300                   MNW =           0.1074

            TOTAL IN =     4061032.7500              TOTAL IN =           0.2149

          OUT:                                     OUT:
          ----                                     ----
             STORAGE =      128610.2420               STORAGE =       7.2078E-07
       CONSTANT HEAD =     1901999.8800         CONSTANT HEAD =           0.1075
                 MNW =     2029908.0000                   MNW =           0.1074

           TOTAL OUT =     4060518.0000             TOTAL OUT =           0.2149

            IN - OUT =         514.6875              IN - OUT =       4.3757E-06

 PERCENT DISCREPANCY =           0.01     PERCENT DISCREPANCY =           0.00






          TIME SUMMARY AT END OF TIME STEP  84 IN STRESS PERIOD    1
                    SECONDS     MINUTES      HOURS       DAYS        YEARS
                    -----------------------------------------------------------
   TIME STEP LENGTH 1.70950E+06  28492.      474.86      19.786     5.41708E-02
 STRESS PERIOD TIME 1.87982E+07 3.13304E+05  5221.7      217.57     0.59568    
         TOTAL TIME 1.87982E+07 3.13304E+05  5221.7      217.57     0.59568    
1
 
 SOLVING FOR HEAD 
     3 CALLS TO PCG ROUTINE FOR TIME STEP  85 IN STRESS PERIOD    1
     9 TOTAL ITERATIONS

 HEAD/DRAWDOWN PRINTOUT FLAG = 0     TOTAL BUDGET PRINTOUT FLAG = 1
 CELL-BY-CELL FLOW TERM FLAG = 0
 REUSING PREVIOUS VALUES OF IOFLG

 SAVING SATURATED THICKNESS AND FLOW TERMS ON UNIT  333 FOR MT3DMS
 BY THE LINK-MT3DMS PACKAGE V6.2 AT TIME STEP   85, STRESS PERIOD    1

1
  VOLUMETRIC BUDGET FOR ENTIRE MODEL AT END OF TIME STEP 85 IN STRESS PERIOD   1
  ------------------------------------------------------------------------------

     CUMULATIVE VOLUMES      L**3       RATES FOR THIS TIME STEP      L**3/T
     ------------------                 ------------------------

           IN:                                      IN:
           ---                                      ---
             STORAGE =       32856.1094               STORAGE =       1.5517E-05
       CONSTANT HEAD =     2200287.5000         CONSTANT HEAD =           0.1074
                 MNW =     2232004.2500                   MNW =           0.1075

            TOTAL IN =     4465148.0000              TOTAL IN =           0.2149

          OUT:                                     OUT:
          ----                                     ----
             STORAGE =      128615.3520               STORAGE =       2.7158E-06
       CONSTANT HEAD =     2103973.2500         CONSTANT HEAD =           0.1074
                 MNW =     2232001.5000                   MNW =           0.1075

           TOTAL OUT =     4464590.0000             TOTAL OUT =           0.2149

            IN - OUT =         557.7578              IN - OUT =       2.2912E-05

 PERCENT DISCREPANCY =           0.01     PERCENT DISCREPANCY =           0.01






          TIME SUMMARY AT END OF TIME STEP  85 IN STRESS PERIOD    1
                    SECONDS     MINUTES      HOURS       DAYS        YEARS
                    -----------------------------------------------------------
   TIME STEP LENGTH 1.88045E+06  31341.      522.35      21.764     5.95879E-02
 STRESS PERIOD TIME 2.06787E+07 3.44645E+05  5744.1      239.34     0.65527    
         TOTAL TIME 2.06787E+07 3.44645E+05  5744.1      239.34     0.65527    
1
 
 SOLVING FOR HEAD 
     3 CALLS TO PCG ROUTINE FOR TIME STEP  86 IN STRESS PERIOD    1
     7 TOTAL ITERATIONS

 HEAD/DRAWDOWN PRINTOUT FLAG = 0     TOTAL BUDGET PRINTOUT FLAG = 1
 CELL-BY-CELL FLOW TERM FLAG = 0
 REUSING PREVIOUS VALUES OF IOFLG

 SAVING SATURATED THICKNESS AND FLOW TERMS ON UNIT  333 FOR MT3DMS
 BY THE LINK-MT3DMS PACKAGE V6.2 AT TIME STEP   86, STRESS PERIOD    1

1
  VOLUMETRIC BUDGET FOR ENTIRE MODEL AT END OF TIME STEP 86 IN STRESS PERIOD   1
  ------------------------------------------------------------------------------

     CUMULATIVE VOLUMES      L**3       RATES FOR THIS TIME STEP      L**3/T
     ------------------                 ------------------------

           IN:                                      IN:
           ---                                      ---
             STORAGE =       32861.0195               STORAGE =       2.3729E-06
       CONSTANT HEAD =     2422486.2500         CONSTANT HEAD =           0.1074
                 MNW =     2454289.2500                   MNW =           0.1075

            TOTAL IN =     4909636.5000              TOTAL IN =           0.2149

          OUT:                                     OUT:
          ----                                     ----
             STORAGE =      128622.5780               STORAGE =       3.4930E-06
       CONSTANT HEAD =     2326178.5000         CONSTANT HEAD =           0.1074
                 MNW =     2454286.7500                   MNW =           0.1075

           TOTAL OUT =     4909088.0000             TOTAL OUT =           0.2149

            IN - OUT =         548.6914              IN - OUT =      -4.3685E-06

 PERCENT DISCREPANCY =           0.01     PERCENT DISCREPANCY =           0.00






          TIME SUMMARY AT END OF TIME STEP  86 IN STRESS PERIOD    1
                    SECONDS     MINUTES      HOURS       DAYS        YEARS
                    -----------------------------------------------------------
   TIME STEP LENGTH 2.06850E+06  34475.      574.58      23.941     6.55467E-02
 STRESS PERIOD TIME 2.27472E+07 3.79120E+05  6318.7      263.28     0.72082    
         TOTAL TIME 2.27472E+07 3.79120E+05  6318.7      263.28     0.72082    
1
 
 SOLVING FOR HEAD 
     1 CALLS TO PCG ROUTINE FOR TIME STEP  87 IN STRESS PERIOD    1
     1 TOTAL ITERATIONS

 HEAD/DRAWDOWN PRINTOUT FLAG = 0     TOTAL BUDGET PRINTOUT FLAG = 1
 CELL-BY-CELL FLOW TERM FLAG = 0
 REUSING PREVIOUS VALUES OF IOFLG

 SAVING SATURATED THICKNESS AND FLOW TERMS ON UNIT  333 FOR MT3DMS
 BY THE LINK-MT3DMS PACKAGE V6.2 AT TIME STEP   87, STRESS PERIOD    1

1
  VOLUMETRIC BUDGET FOR ENTIRE MODEL AT END OF TIME STEP 87 IN STRESS PERIOD   1
  ------------------------------------------------------------------------------

     CUMULATIVE VOLUMES      L**3       RATES FOR THIS TIME STEP      L**3/T
     ------------------                 ------------------------

           IN:                                      IN:
           ---                                      ---
             STORAGE =       32862.2969               STORAGE =       5.6119E-07
       CONSTANT HEAD =     2666914.7500         CONSTANT HEAD =           0.1074
                 MNW =     2698799.5000                   MNW =           0.1075

            TOTAL IN =     5398576.5000              TOTAL IN =           0.2149

          OUT:                                     OUT:
          ----                                     ----
             STORAGE =      128625.6640               STORAGE =       1.3571E-06
       CONSTANT HEAD =     2570607.7500         CONSTANT HEAD =           0.1074
                 MNW =     2698797.7500                   MNW =           0.1075

           TOTAL OUT =     5398031.0000             TOTAL OUT =           0.2149

            IN - OUT =         545.3828              IN - OUT =      -1.3398E-06

 PERCENT DISCREPANCY =           0.01     PERCENT DISCREPANCY =           0.00






          TIME SUMMARY AT END OF TIME STEP  87 IN STRESS PERIOD    1
                    SECONDS     MINUTES      HOURS       DAYS        YEARS
                    -----------------------------------------------------------
   TIME STEP LENGTH 2.27535E+06  37922.      632.04      26.335     7.21014E-02
 STRESS PERIOD TIME 2.50225E+07 4.17042E+05  6950.7      289.61     0.79292    
         TOTAL TIME 2.50225E+07 4.17042E+05  6950.7      289.61     0.79292    
1
 
 SOLVING FOR HEAD 
     2 CALLS TO PCG ROUTINE FOR TIME STEP  88 IN STRESS PERIOD    1
     3 TOTAL ITERATIONS

 HEAD/DRAWDOWN PRINTOUT FLAG = 0     TOTAL BUDGET PRINTOUT FLAG = 1
 CELL-BY-CELL FLOW TERM FLAG = 0
 REUSING PREVIOUS VALUES OF IOFLG

 SAVING SATURATED THICKNESS AND FLOW TERMS ON UNIT  333 FOR MT3DMS
 BY THE LINK-MT3DMS PACKAGE V6.2 AT TIME STEP   88, STRESS PERIOD    1

1
  VOLUMETRIC BUDGET FOR ENTIRE MODEL AT END OF TIME STEP 88 IN STRESS PERIOD   1
  ------------------------------------------------------------------------------

     CUMULATIVE VOLUMES      L**3       RATES FOR THIS TIME STEP      L**3/T
     ------------------                 ------------------------

           IN:                                      IN:
           ---                                      ---
             STORAGE =       32873.1289               STORAGE =       4.3282E-06
       CONSTANT HEAD =     2935784.0000         CONSTANT HEAD =           0.1074
                 MNW =     2968489.0000                   MNW =           0.1078

            TOTAL IN =     5937146.0000              TOTAL IN =           0.2152

          OUT:                                     OUT:
          ----                                     ----
             STORAGE =      128631.8360               STORAGE =       2.4656E-06
       CONSTANT HEAD =     2839483.7500         CONSTANT HEAD =           0.1074
                 MNW =     2968486.0000                   MNW =           0.1078

           TOTAL OUT =     5936601.5000             TOTAL OUT =           0.2152

            IN - OUT =         544.5430              IN - OUT =      -3.2788E-07

 PERCENT DISCREPANCY =           0.01     PERCENT DISCREPANCY =           0.00






          TIME SUMMARY AT END OF TIME STEP  88 IN STRESS PERIOD    1
                    SECONDS     MINUTES      HOURS       DAYS        YEARS
                    -----------------------------------------------------------
   TIME STEP LENGTH 2.50288E+06  41715.      695.24      28.969     7.93115E-02
 STRESS PERIOD TIME 2.75254E+07 4.58757E+05  7645.9      318.58     0.87223    
         TOTAL TIME 2.75254E+07 4.58757E+05  7645.9      318.58     0.87223    
1
 
 SOLVING FOR HEAD 
     3 CALLS TO PCG ROUTINE FOR TIME STEP  89 IN STRESS PERIOD    1
    13 TOTAL ITERATIONS

 HEAD/DRAWDOWN PRINTOUT FLAG = 0     TOTAL BUDGET PRINTOUT FLAG = 1
 CELL-BY-CELL FLOW TERM FLAG = 0
 REUSING PREVIOUS VALUES OF IOFLG

 SAVING SATURATED THICKNESS AND FLOW TERMS ON UNIT  333 FOR MT3DMS
 BY THE LINK-MT3DMS PACKAGE V6.2 AT TIME STEP   89, STRESS PERIOD    1

1
  VOLUMETRIC BUDGET FOR ENTIRE MODEL AT END OF TIME STEP 89 IN STRESS PERIOD   1
  ------------------------------------------------------------------------------

     CUMULATIVE VOLUMES      L**3       RATES FOR THIS TIME STEP      L**3/T
     ------------------                 ------------------------

           IN:                                      IN:
           ---                                      ---
             STORAGE =       32884.0820               STORAGE =       3.9790E-06
       CONSTANT HEAD =     3231635.5000         CONSTANT HEAD =           0.1075
                 MNW =     3264251.0000                   MNW =           0.1074

            TOTAL IN =     6528770.5000              TOTAL IN =           0.2149

          OUT:                                     OUT:
          ----                                     ----
             STORAGE =      128642.5000               STORAGE =       3.8735E-06
       CONSTANT HEAD =     3135359.7500         CONSTANT HEAD =           0.1075
                 MNW =     3264248.2500                   MNW =           0.1074

           TOTAL OUT =     6528250.5000             TOTAL OUT =           0.2149

            IN - OUT =         520.0820              IN - OUT =      -8.8800E-06

 PERCENT DISCREPANCY =           0.01     PERCENT DISCREPANCY =           0.00






          TIME SUMMARY AT END OF TIME STEP  89 IN STRESS PERIOD    1
                    SECONDS     MINUTES      HOURS       DAYS        YEARS
                    -----------------------------------------------------------
   TIME STEP LENGTH 2.75317E+06  45886.      764.77      31.865     8.72427E-02
 STRESS PERIOD TIME 3.02786E+07 5.04643E+05  8410.7      350.45     0.95947    
         TOTAL TIME 3.02786E+07 5.04643E+05  8410.7      350.45     0.95947    
1
 
 SOLVING FOR HEAD 
     3 CALLS TO PCG ROUTINE FOR TIME STEP  90 IN STRESS PERIOD    1
     8 TOTAL ITERATIONS

 HEAD/DRAWDOWN PRINTOUT FLAG = 0     TOTAL BUDGET PRINTOUT FLAG = 1
 CELL-BY-CELL FLOW TERM FLAG = 0
 REUSING PREVIOUS VALUES OF IOFLG

 SAVING SATURATED THICKNESS AND FLOW TERMS ON UNIT  333 FOR MT3DMS
 BY THE LINK-MT3DMS PACKAGE V6.2 AT TIME STEP   90, STRESS PERIOD    1

1
  VOLUMETRIC BUDGET FOR ENTIRE MODEL AT END OF TIME STEP 90 IN STRESS PERIOD   1
  ------------------------------------------------------------------------------

     CUMULATIVE VOLUMES      L**3       RATES FOR THIS TIME STEP      L**3/T
     ------------------                 ------------------------

           IN:                                      IN:
           ---                                      ---
             STORAGE =       32891.0586               STORAGE =       2.3031E-06
       CONSTANT HEAD =     3557056.0000         CONSTANT HEAD =           0.1075
                 MNW =     3589573.7500                   MNW =           0.1074

            TOTAL IN =     7179521.0000              TOTAL IN =           0.2149

          OUT:                                     OUT:
          ----                                     ----
             STORAGE =      128669.3440               STORAGE =       8.8627E-06
       CONSTANT HEAD =     3460806.5000         CONSTANT HEAD =           0.1075
                 MNW =     3589573.0000                   MNW =           0.1074

           TOTAL OUT =     7179049.0000             TOTAL OUT =           0.2149

            IN - OUT =         471.9648              IN - OUT =      -1.5858E-05

 PERCENT DISCREPANCY =           0.01     PERCENT DISCREPANCY =          -0.01






          TIME SUMMARY AT END OF TIME STEP  90 IN STRESS PERIOD    1
                    SECONDS     MINUTES      HOURS       DAYS        YEARS
                    -----------------------------------------------------------
   TIME STEP LENGTH 3.02849E+06  50475.      841.25      35.052     9.59670E-02
 STRESS PERIOD TIME 3.33071E+07 5.55118E+05  9252.0      385.50      1.0554    
         TOTAL TIME 3.33071E+07 5.55118E+05  9252.0      385.50      1.0554    
1
 
 SOLVING FOR HEAD 
     7 CALLS TO PCG ROUTINE FOR TIME STEP  91 IN STRESS PERIOD    1
    19 TOTAL ITERATIONS

 HEAD/DRAWDOWN PRINTOUT FLAG = 0     TOTAL BUDGET PRINTOUT FLAG = 1
 CELL-BY-CELL FLOW TERM FLAG = 0
 REUSING PREVIOUS VALUES OF IOFLG

 SAVING SATURATED THICKNESS AND FLOW TERMS ON UNIT  333 FOR MT3DMS
 BY THE LINK-MT3DMS PACKAGE V6.2 AT TIME STEP   91, STRESS PERIOD    1

1
  VOLUMETRIC BUDGET FOR ENTIRE MODEL AT END OF TIME STEP 91 IN STRESS PERIOD   1
  ------------------------------------------------------------------------------

     CUMULATIVE VOLUMES      L**3       RATES FOR THIS TIME STEP      L**3/T
     ------------------                 ------------------------

           IN:                                      IN:
           ---                                      ---
             STORAGE =       32894.7500               STORAGE =       1.1083E-06
       CONSTANT HEAD =     3915025.2500         CONSTANT HEAD =           0.1075
                 MNW =     3947395.0000                   MNW =           0.1074

            TOTAL IN =     7895315.0000              TOTAL IN =           0.2149

          OUT:                                     OUT:
          ----                                     ----
             STORAGE =      128672.7340               STORAGE =       1.0176E-06
       CONSTANT HEAD =     3818796.7500         CONSTANT HEAD =           0.1075
                 MNW =     3947396.0000                   MNW =           0.1074

           TOTAL OUT =     7894865.5000             TOTAL OUT =           0.2149

            IN - OUT =         449.5156              IN - OUT =      -6.6223E-06

 PERCENT DISCREPANCY =           0.01     PERCENT DISCREPANCY =           0.00






          TIME SUMMARY AT END OF TIME STEP  91 IN STRESS PERIOD    1
                    SECONDS     MINUTES      HOURS       DAYS        YEARS
                    -----------------------------------------------------------
   TIME STEP LENGTH 3.33134E+06  55522.      925.37      38.557     0.10556    
 STRESS PERIOD TIME 3.66384E+07 6.10640E+05  10177.      424.06      1.1610    
         TOTAL TIME 3.66384E+07 6.10640E+05  10177.      424.06      1.1610    
1
 
 SOLVING FOR HEAD 
     3 CALLS TO PCG ROUTINE FOR TIME STEP  92 IN STRESS PERIOD    1
     8 TOTAL ITERATIONS

 HEAD/DRAWDOWN PRINTOUT FLAG = 0     TOTAL BUDGET PRINTOUT FLAG = 1
 CELL-BY-CELL FLOW TERM FLAG = 0
 REUSING PREVIOUS VALUES OF IOFLG

 SAVING SATURATED THICKNESS AND FLOW TERMS ON UNIT  333 FOR MT3DMS
 BY THE LINK-MT3DMS PACKAGE V6.2 AT TIME STEP   92, STRESS PERIOD    1

1
  VOLUMETRIC BUDGET FOR ENTIRE MODEL AT END OF TIME STEP 92 IN STRESS PERIOD   1
  ------------------------------------------------------------------------------

     CUMULATIVE VOLUMES      L**3       RATES FOR THIS TIME STEP      L**3/T
     ------------------                 ------------------------

           IN:                                      IN:
           ---                                      ---
             STORAGE =       32898.3984               STORAGE =       9.9580E-07
       CONSTANT HEAD =     4308783.5000         CONSTANT HEAD =           0.1075
                 MNW =     4341062.0000                   MNW =           0.1074

            TOTAL IN =     8682744.0000              TOTAL IN =           0.2149

          OUT:                                     OUT:
          ----                                     ----
             STORAGE =      128677.7190               STORAGE =       1.3600E-06
       CONSTANT HEAD =     4212575.0000         CONSTANT HEAD =           0.1075
                 MNW =     4341064.0000                   MNW =           0.1074

           TOTAL OUT =     8682317.0000             TOTAL OUT =           0.2149

            IN - OUT =         427.1797              IN - OUT =      -6.0341E-06

 PERCENT DISCREPANCY =           0.00     PERCENT DISCREPANCY =           0.00






          TIME SUMMARY AT END OF TIME STEP  92 IN STRESS PERIOD    1
                    SECONDS     MINUTES      HOURS       DAYS        YEARS
                    -----------------------------------------------------------
   TIME STEP LENGTH 3.66447E+06  61074.      1017.9      42.413     0.11612    
 STRESS PERIOD TIME 4.03029E+07 6.71715E+05  11195.      466.47      1.2771    
         TOTAL TIME 4.03029E+07 6.71715E+05  11195.      466.47      1.2771    
1
 
 SOLVING FOR HEAD 
     1 CALLS TO PCG ROUTINE FOR TIME STEP  93 IN STRESS PERIOD    1
     1 TOTAL ITERATIONS

 HEAD/DRAWDOWN PRINTOUT FLAG = 0     TOTAL BUDGET PRINTOUT FLAG = 1
 CELL-BY-CELL FLOW TERM FLAG = 0
 REUSING PREVIOUS VALUES OF IOFLG

 SAVING SATURATED THICKNESS AND FLOW TERMS ON UNIT  333 FOR MT3DMS
 BY THE LINK-MT3DMS PACKAGE V6.2 AT TIME STEP   93, STRESS PERIOD    1

1
  VOLUMETRIC BUDGET FOR ENTIRE MODEL AT END OF TIME STEP 93 IN STRESS PERIOD   1
  ------------------------------------------------------------------------------

     CUMULATIVE VOLUMES      L**3       RATES FOR THIS TIME STEP      L**3/T
     ------------------                 ------------------------

           IN:                                      IN:
           ---                                      ---
             STORAGE =       32900.0898               STORAGE =       4.1982E-07
       CONSTANT HEAD =     4741911.0000         CONSTANT HEAD =           0.1075
                 MNW =     4774185.0000                   MNW =           0.1075

            TOTAL IN =     9548996.0000              TOTAL IN =           0.2149

          OUT:                                     OUT:
          ----                                     ----
             STORAGE =      128679.4610               STORAGE =       4.3165E-07
       CONSTANT HEAD =     4645720.5000         CONSTANT HEAD =           0.1075
                 MNW =     4774186.0000                   MNW =           0.1075

           TOTAL OUT =     9548586.0000             TOTAL OUT =           0.2149

            IN - OUT =         410.1289              IN - OUT =      -4.3108E-06

 PERCENT DISCREPANCY =           0.00     PERCENT DISCREPANCY =           0.00






          TIME SUMMARY AT END OF TIME STEP  93 IN STRESS PERIOD    1
                    SECONDS     MINUTES      HOURS       DAYS        YEARS
                    -----------------------------------------------------------
   TIME STEP LENGTH 4.03092E+06  67182.      1119.7      46.654     0.12773    
 STRESS PERIOD TIME 4.43338E+07 7.38897E+05  12315.      513.12      1.4049    
         TOTAL TIME 4.43338E+07 7.38897E+05  12315.      513.12      1.4049    
1
 
 SOLVING FOR HEAD 
     3 CALLS TO PCG ROUTINE FOR TIME STEP  94 IN STRESS PERIOD    1
     9 TOTAL ITERATIONS

 HEAD/DRAWDOWN PRINTOUT FLAG = 0     TOTAL BUDGET PRINTOUT FLAG = 1
 CELL-BY-CELL FLOW TERM FLAG = 0
 REUSING PREVIOUS VALUES OF IOFLG

 SAVING SATURATED THICKNESS AND FLOW TERMS ON UNIT  333 FOR MT3DMS
 BY THE LINK-MT3DMS PACKAGE V6.2 AT TIME STEP   94, STRESS PERIOD    1

1
  VOLUMETRIC BUDGET FOR ENTIRE MODEL AT END OF TIME STEP 94 IN STRESS PERIOD   1
  ------------------------------------------------------------------------------

     CUMULATIVE VOLUMES      L**3       RATES FOR THIS TIME STEP      L**3/T
     ------------------                 ------------------------

           IN:                                      IN:
           ---                                      ---
             STORAGE =       32921.0742               STORAGE =       4.7325E-06
       CONSTANT HEAD =     5218208.0000         CONSTANT HEAD =           0.1074
                 MNW =     5250721.0000                   MNW =           0.1075

            TOTAL IN =    10501850.0000              TOTAL IN =           0.2149

          OUT:                                     OUT:
          ----                                     ----
             STORAGE =      128687.0230               STORAGE =       1.7054E-06
       CONSTANT HEAD =     5121955.0000         CONSTANT HEAD =           0.1074
                 MNW =     5250723.5000                   MNW =           0.1075

           TOTAL OUT =    10501366.0000             TOTAL OUT =           0.2149

            IN - OUT =         484.5508              IN - OUT =       1.6788E-05

 PERCENT DISCREPANCY =           0.00     PERCENT DISCREPANCY =           0.01






          TIME SUMMARY AT END OF TIME STEP  94 IN STRESS PERIOD    1
                    SECONDS     MINUTES      HOURS       DAYS        YEARS
                    -----------------------------------------------------------
   TIME STEP LENGTH 4.43401E+06  73900.      1231.7      51.320     0.14051    
 STRESS PERIOD TIME 4.87678E+07 8.12797E+05  13547.      564.44      1.5454    
         TOTAL TIME 4.87678E+07 8.12797E+05  13547.      564.44      1.5454    
1
 
 SOLVING FOR HEAD 
     3 CALLS TO PCG ROUTINE FOR TIME STEP  95 IN STRESS PERIOD    1
     8 TOTAL ITERATIONS

 HEAD/DRAWDOWN PRINTOUT FLAG = 0     TOTAL BUDGET PRINTOUT FLAG = 1
 CELL-BY-CELL FLOW TERM FLAG = 0
 REUSING PREVIOUS VALUES OF IOFLG

 SAVING SATURATED THICKNESS AND FLOW TERMS ON UNIT  333 FOR MT3DMS
 BY THE LINK-MT3DMS PACKAGE V6.2 AT TIME STEP   95, STRESS PERIOD    1

1
  VOLUMETRIC BUDGET FOR ENTIRE MODEL AT END OF TIME STEP 95 IN STRESS PERIOD   1
  ------------------------------------------------------------------------------

     CUMULATIVE VOLUMES      L**3       RATES FOR THIS TIME STEP      L**3/T
     ------------------                 ------------------------

           IN:                                      IN:
           ---                                      ---
             STORAGE =       32929.0977               STORAGE =       1.6452E-06
       CONSTANT HEAD =     5742157.5000         CONSTANT HEAD =           0.1074
                 MNW =     5774800.5000                   MNW =           0.1075

            TOTAL IN =    11549887.0000              TOTAL IN =           0.2149

          OUT:                                     OUT:
          ----                                     ----
             STORAGE =      128695.0550               STORAGE =       1.6472E-06
       CONSTANT HEAD =     5645889.0000         CONSTANT HEAD =           0.1074
                 MNW =     5774801.5000                   MNW =           0.1075

           TOTAL OUT =    11549386.0000             TOTAL OUT =           0.2149

            IN - OUT =         501.5430              IN - OUT =       3.4253E-06

 PERCENT DISCREPANCY =           0.00     PERCENT DISCREPANCY =           0.00






          TIME SUMMARY AT END OF TIME STEP  95 IN STRESS PERIOD    1
                    SECONDS     MINUTES      HOURS       DAYS        YEARS
                    -----------------------------------------------------------
   TIME STEP LENGTH 4.87741E+06  81290.      1354.8      56.451     0.15456    
 STRESS PERIOD TIME 5.36452E+07 8.94087E+05  14901.      620.89      1.6999    
         TOTAL TIME 5.36452E+07 8.94087E+05  14901.      620.89      1.6999    
1
 
 SOLVING FOR HEAD 
     1 CALLS TO PCG ROUTINE FOR TIME STEP  96 IN STRESS PERIOD    1
     1 TOTAL ITERATIONS

 HEAD/DRAWDOWN PRINTOUT FLAG = 0     TOTAL BUDGET PRINTOUT FLAG = 1
 CELL-BY-CELL FLOW TERM FLAG = 0
 REUSING PREVIOUS VALUES OF IOFLG

 SAVING SATURATED THICKNESS AND FLOW TERMS ON UNIT  333 FOR MT3DMS
 BY THE LINK-MT3DMS PACKAGE V6.2 AT TIME STEP   96, STRESS PERIOD    1

1
  VOLUMETRIC BUDGET FOR ENTIRE MODEL AT END OF TIME STEP 96 IN STRESS PERIOD   1
  ------------------------------------------------------------------------------

     CUMULATIVE VOLUMES      L**3       RATES FOR THIS TIME STEP      L**3/T
     ------------------                 ------------------------

           IN:                                      IN:
           ---                                      ---
             STORAGE =       32930.5000               STORAGE =       2.6125E-07
       CONSTANT HEAD =     6318531.0000         CONSTANT HEAD =           0.1074
                 MNW =     6351348.5000                   MNW =           0.1075

            TOTAL IN =    12702810.0000              TOTAL IN =           0.2149

          OUT:                                     OUT:
          ----                                     ----
             STORAGE =      128699.7190               STORAGE =       8.6942E-07
       CONSTANT HEAD =     6222245.5000         CONSTANT HEAD =           0.1074
                 MNW =     6351345.5000                   MNW =           0.1075

           TOTAL OUT =    12702291.0000             TOTAL OUT =           0.2149

            IN - OUT =         519.2812              IN - OUT =       3.3481E-06

 PERCENT DISCREPANCY =           0.00     PERCENT DISCREPANCY =           0.00






          TIME SUMMARY AT END OF TIME STEP  96 IN STRESS PERIOD    1
                    SECONDS     MINUTES      HOURS       DAYS        YEARS
                    -----------------------------------------------------------
   TIME STEP LENGTH 5.36515E+06  89419.      1490.3      62.097     0.17001    
 STRESS PERIOD TIME 5.90104E+07 9.83506E+05  16392.      682.99      1.8699    
         TOTAL TIME 5.90104E+07 9.83506E+05  16392.      682.99      1.8699    
1
 
 SOLVING FOR HEAD 
     3 CALLS TO PCG ROUTINE FOR TIME STEP  97 IN STRESS PERIOD    1
     9 TOTAL ITERATIONS

 HEAD/DRAWDOWN PRINTOUT FLAG = 0     TOTAL BUDGET PRINTOUT FLAG = 1
 CELL-BY-CELL FLOW TERM FLAG = 0
 REUSING PREVIOUS VALUES OF IOFLG

 SAVING SATURATED THICKNESS AND FLOW TERMS ON UNIT  333 FOR MT3DMS
 BY THE LINK-MT3DMS PACKAGE V6.2 AT TIME STEP   97, STRESS PERIOD    1

1
  VOLUMETRIC BUDGET FOR ENTIRE MODEL AT END OF TIME STEP 97 IN STRESS PERIOD   1
  ------------------------------------------------------------------------------

     CUMULATIVE VOLUMES      L**3       RATES FOR THIS TIME STEP      L**3/T
     ------------------                 ------------------------

           IN:                                      IN:
           ---                                      ---
             STORAGE =       32935.0430               STORAGE =       7.6982E-07
       CONSTANT HEAD =     6952540.0000         CONSTANT HEAD =           0.1074
                 MNW =     6985580.0000                   MNW =           0.1075

            TOTAL IN =    13971055.0000              TOTAL IN =           0.2149

          OUT:                                     OUT:
          ----                                     ----
             STORAGE =      128705.5620               STORAGE =       9.8965E-07
       CONSTANT HEAD =     6856182.5000         CONSTANT HEAD =           0.1074
                 MNW =     6985577.5000                   MNW =           0.1075

           TOTAL OUT =    13970466.0000             TOTAL OUT =           0.2149

            IN - OUT =         589.4805              IN - OUT =       1.2014E-05

 PERCENT DISCREPANCY =           0.00     PERCENT DISCREPANCY =           0.01






          TIME SUMMARY AT END OF TIME STEP  97 IN STRESS PERIOD    1
                    SECONDS     MINUTES      HOURS       DAYS        YEARS
                    -----------------------------------------------------------
   TIME STEP LENGTH 5.90166E+06  98361.      1639.4      68.306     0.18701    
 STRESS PERIOD TIME 6.49120E+07 1.08187E+06  18031.      751.30      2.0569    
         TOTAL TIME 6.49120E+07 1.08187E+06  18031.      751.30      2.0569    
1
 
 SOLVING FOR HEAD 
     3 CALLS TO PCG ROUTINE FOR TIME STEP  98 IN STRESS PERIOD    1
     8 TOTAL ITERATIONS

 HEAD/DRAWDOWN PRINTOUT FLAG = 0     TOTAL BUDGET PRINTOUT FLAG = 1
 CELL-BY-CELL FLOW TERM FLAG = 0
 REUSING PREVIOUS VALUES OF IOFLG

 SAVING SATURATED THICKNESS AND FLOW TERMS ON UNIT  333 FOR MT3DMS
 BY THE LINK-MT3DMS PACKAGE V6.2 AT TIME STEP   98, STRESS PERIOD    1

1
  VOLUMETRIC BUDGET FOR ENTIRE MODEL AT END OF TIME STEP 98 IN STRESS PERIOD   1
  ------------------------------------------------------------------------------

     CUMULATIVE VOLUMES      L**3       RATES FOR THIS TIME STEP      L**3/T
     ------------------                 ------------------------

           IN:                                      IN:
           ---                                      ---
             STORAGE =       32943.2109               STORAGE =       1.2581E-06
       CONSTANT HEAD =     7649919.0000         CONSTANT HEAD =           0.1074
                 MNW =     7683150.0000                   MNW =           0.1075

            TOTAL IN =    15366012.0000              TOTAL IN =           0.2149

          OUT:                                     OUT:
          ----                                     ----
             STORAGE =      128710.3280               STORAGE =       7.3397E-07
       CONSTANT HEAD =     7553539.5000         CONSTANT HEAD =           0.1074
                 MNW =     7683151.0000                   MNW =           0.1075

           TOTAL OUT =    15365401.0000             TOTAL OUT =           0.2149

            IN - OUT =         611.3828              IN - OUT =       3.4299E-06

 PERCENT DISCREPANCY =           0.00     PERCENT DISCREPANCY =           0.00






          TIME SUMMARY AT END OF TIME STEP  98 IN STRESS PERIOD    1
                    SECONDS     MINUTES      HOURS       DAYS        YEARS
                    -----------------------------------------------------------
   TIME STEP LENGTH 6.49183E+06 1.08197E+05  1803.3      75.137     0.20571    
 STRESS PERIOD TIME 7.14038E+07 1.19006E+06  19834.      826.43      2.2627    
         TOTAL TIME 7.14038E+07 1.19006E+06  19834.      826.43      2.2627    
1
 
 SOLVING FOR HEAD 
     1 CALLS TO PCG ROUTINE FOR TIME STEP  99 IN STRESS PERIOD    1
     1 TOTAL ITERATIONS

 HEAD/DRAWDOWN PRINTOUT FLAG = 0     TOTAL BUDGET PRINTOUT FLAG = 1
 CELL-BY-CELL FLOW TERM FLAG = 0
 REUSING PREVIOUS VALUES OF IOFLG

 SAVING SATURATED THICKNESS AND FLOW TERMS ON UNIT  333 FOR MT3DMS
 BY THE LINK-MT3DMS PACKAGE V6.2 AT TIME STEP   99, STRESS PERIOD    1

1
  VOLUMETRIC BUDGET FOR ENTIRE MODEL AT END OF TIME STEP 99 IN STRESS PERIOD   1
  ------------------------------------------------------------------------------

     CUMULATIVE VOLUMES      L**3       RATES FOR THIS TIME STEP      L**3/T
     ------------------                 ------------------------

           IN:                                      IN:
           ---                                      ---
             STORAGE =       32944.2656               STORAGE =       1.4775E-07
       CONSTANT HEAD =     8417074.0000         CONSTANT HEAD =           0.1074
                 MNW =     8450507.0000                   MNW =           0.1075

            TOTAL IN =    16900526.0000              TOTAL IN =           0.2149

          OUT:                                     OUT:
          ----                                     ----
             STORAGE =      128714.2340               STORAGE =       5.4748E-07
       CONSTANT HEAD =     8320672.0000         CONSTANT HEAD =           0.1074
                 MNW =     8450509.0000                   MNW =           0.1075

           TOTAL OUT =    16899896.0000             TOTAL OUT =           0.2149

            IN - OUT =         630.0312              IN - OUT =       2.5209E-06

 PERCENT DISCREPANCY =           0.00     PERCENT DISCREPANCY =           0.00






          TIME SUMMARY AT END OF TIME STEP  99 IN STRESS PERIOD    1
                    SECONDS     MINUTES      HOURS       DAYS        YEARS
                    -----------------------------------------------------------
   TIME STEP LENGTH 7.14101E+06 1.19017E+05  1983.6      82.651     0.22629    
 STRESS PERIOD TIME 7.85449E+07 1.30908E+06  21818.      909.08      2.4889    
         TOTAL TIME 7.85449E+07 1.30908E+06  21818.      909.08      2.4889    
1
 
 SOLVING FOR HEAD 
     3 CALLS TO PCG ROUTINE FOR TIME STEP 100 IN STRESS PERIOD    1
     8 TOTAL ITERATIONS

 HEAD/DRAWDOWN PRINTOUT FLAG = 0     TOTAL BUDGET PRINTOUT FLAG = 1
 CELL-BY-CELL FLOW TERM FLAG = 0
 REUSING PREVIOUS VALUES OF IOFLG

 SAVING SATURATED THICKNESS AND FLOW TERMS ON UNIT  333 FOR MT3DMS
 BY THE LINK-MT3DMS PACKAGE V6.2 AT TIME STEP  100, STRESS PERIOD    1

1
  VOLUMETRIC BUDGET FOR ENTIRE MODEL AT END OF TIME STEP100 IN STRESS PERIOD   1
  ------------------------------------------------------------------------------

     CUMULATIVE VOLUMES      L**3       RATES FOR THIS TIME STEP      L**3/T
     ------------------                 ------------------------

           IN:                                      IN:
           ---                                      ---
             STORAGE =       32946.1016               STORAGE =       2.3386E-07
       CONSTANT HEAD =     9260934.0000         CONSTANT HEAD =           0.1074
                 MNW =     9294609.0000                   MNW =           0.1075

            TOTAL IN =    18588490.0000              TOTAL IN =           0.2149

          OUT:                                     OUT:
          ----                                     ----
             STORAGE =      128715.6330               STORAGE =       1.7785E-07
       CONSTANT HEAD =     9164483.0000         CONSTANT HEAD =           0.1074
                 MNW =     9294616.0000                   MNW =           0.1075

           TOTAL OUT =    18587814.0000             TOTAL OUT =           0.2149

            IN - OUT =         674.4688              IN - OUT =       5.6738E-06

 PERCENT DISCREPANCY =           0.00     PERCENT DISCREPANCY =           0.00






          TIME SUMMARY AT END OF TIME STEP 100 IN STRESS PERIOD    1
                    SECONDS     MINUTES      HOURS       DAYS        YEARS
                    -----------------------------------------------------------
   TIME STEP LENGTH 7.85512E+06 1.30919E+05  2182.0      90.916     0.24891    
 STRESS PERIOD TIME 8.64000E+07 1.44000E+06  24000.      1000.0      2.7379    
         TOTAL TIME 8.64000E+07 1.44000E+06  24000.      1000.0      2.7379    
1
