                                  MODFLOW-2000
      U.S. GEOLOGICAL SURVEY MODULAR FINITE-DIFFERENCE GROUND-WATER FLOW MODEL
                           VERSION 1.17.01 09/22/2006


 This model run combines GLOBAL and LIST output into this single file.

 GLOBAL LISTING FILE: t5.lst
                         UNIT    7
#                                                                                                                                                                                                       
# Input files                                                                                                                                                                                           

 OPENING t5.dis
 FILE TYPE:DIS   UNIT    8   STATUS:OLD    
 FORMAT:FORMATTED              ACCESS:SEQUENTIAL          

 OPENING t5.bas
 FILE TYPE:BAS6   UNIT    9   STATUS:OLD    
 FORMAT:FORMATTED              ACCESS:SEQUENTIAL          

 OPENING t5.bcf
 FILE TYPE:BCF6   UNIT   10   STATUS:OLD    
 FORMAT:FORMATTED              ACCESS:SEQUENTIAL          

 OPENING t5.mnw
 FILE TYPE:MNW1   UNIT   75   STATUS:OLD    
 FORMAT:FORMATTED              ACCESS:SEQUENTIAL          

 OPENING t5.pcg
 FILE TYPE:PCG   UNIT   74   STATUS:OLD    
 FORMAT:FORMATTED              ACCESS:SEQUENTIAL          

 OPENING t5.oc
 FILE TYPE:OC   UNIT   71   STATUS:OLD    
 FORMAT:FORMATTED              ACCESS:SEQUENTIAL          

 OPENING t5.lmt
 FILE TYPE:LMT6   UNIT   66   STATUS:OLD    
 FORMAT:FORMATTED              ACCESS:SEQUENTIAL          
#                                                                                                                                                                                                       
# Binary output files                                                                                                                                                                                   

 OPENING t5.ufh
 FILE TYPE:DATA(BINARY)   UNIT   89   STATUS:REPLACE
 FORMAT:BINARY                 ACCESS:SEQUENTIAL          

 OPENING t5.cbc
 FILE TYPE:DATA(BINARY)   UNIT   90   STATUS:REPLACE
 FORMAT:BINARY                 ACCESS:SEQUENTIAL          

 THE FREE FORMAT OPTION HAS BEEN SELECTED

 DISCRETIZATION INPUT DATA READ FROM UNIT    8
    3 LAYERS       101 ROWS       101 COLUMNS
    1 STRESS PERIOD(S) IN SIMULATION
 MODEL TIME UNIT IS SECONDS
 MODEL LENGTH UNIT IS FEET
 THE GROUND-WATER TRANSPORT PROCESS IS INACTIVE

 THE OBSERVATION PROCESS IS INACTIVE
 THE SENSITIVITY PROCESS IS INACTIVE
 THE PARAMETER-ESTIMATION PROCESS IS INACTIVE

 MODE: FORWARD

  Confining bed flag for each layer:
   0   0   0

     275629  ELEMENTS OF GX ARRAY USED OUT OF     275629
      30603  ELEMENTS OF GZ ARRAY USED OUT OF      30603
      30603  ELEMENTS OF IG ARRAY USED OUT OF      30603



                               DELR
 READING ON UNIT    8 WITH FORMAT: (10F11.0)           
   2798.0       2465.0       2172.0       1914.0       1687.0    
   1486.0       1309.0       1154.0       1017.0       895.80    
   789.40       695.50       612.90       540.00       475.80    
   419.30       369.40       325.50       286.80       252.70    
   222.70       196.20       172.90       152.30       134.20    
   118.30       104.20       91.830       80.920       71.300    
   62.820       55.360       48.780       42.980       37.870    
   33.370       29.400       25.910       22.830       20.110    
   17.720       15.620       13.760       12.120       10.680    
   9.4140       8.2950       7.3090       6.4400       5.6740    
   5.0000       5.6740       6.4400       7.3090       8.2950    
   9.4140       10.680       12.120       13.760       15.620    
   17.720       20.110       22.830       25.910       29.400    
   33.370       37.870       42.980       48.780       55.360    
   62.820       71.300       80.920       91.830       104.20    
   118.30       134.20       152.30       172.90       196.20    
   222.70       252.70       286.80       325.50       369.40    
   419.30       475.80       540.00       612.90       695.50    
   789.40       895.80       1017.0       1154.0       1309.0    
   1486.0       1687.0       1914.0       2172.0       2465.0    
   2798.0    



                               DELC
 READING ON UNIT    8 WITH FORMAT: (10F11.0)           
   2798.0       2465.0       2172.0       1914.0       1687.0    
   1486.0       1309.0       1154.0       1017.0       895.80    
   789.40       695.50       612.90       540.00       475.80    
   419.30       369.40       325.50       286.80       252.70    
   222.70       196.20       172.90       152.30       134.20    
   118.30       104.20       91.830       80.920       71.300    
   62.820       55.360       48.780       42.980       37.870    
   33.370       29.400       25.910       22.830       20.110    
   17.720       15.620       13.760       12.120       10.680    
   9.4140       8.2950       7.3090       6.4400       5.6740    
   5.0000       5.6740       6.4400       7.3090       8.2950    
   9.4140       10.680       12.120       13.760       15.620    
   17.720       20.110       22.830       25.910       29.400    
   33.370       37.870       42.980       48.780       55.360    
   62.820       71.300       80.920       91.830       104.20    
   118.30       134.20       152.30       172.90       196.20    
   222.70       252.70       286.80       325.50       369.40    
   419.30       475.80       540.00       612.90       695.50    
   789.40       895.80       1017.0       1154.0       1309.0    
   1486.0       1687.0       1914.0       2172.0       2465.0    
   2798.0    

 TOP ELEVATION OF LAYER 1 =   220.000    

   MODEL LAYER BOTTOM EL. =   120.000     FOR LAYER   1

   MODEL LAYER BOTTOM EL. =   100.000     FOR LAYER   2

   MODEL LAYER BOTTOM EL. =   0.00000     FOR LAYER   3


 STRESS PERIOD     LENGTH       TIME STEPS     MULTIPLIER FOR DELT    SS FLAG
 ----------------------------------------------------------------------------
        1        8.6400000E+07    100                    1.100         TR

 TRANSIENT SIMULATION




 PCG2 -- CONJUGATE GRADIENT SOLUTION PACKAGE, VERSION 2.4, 12/29/98
 # MXITER, ITER1, NPCOND
 MAXIMUM OF   1000 CALLS OF SOLUTION ROUTINE
 MAXIMUM OF     10 INTERNAL ITERATIONS PER CALL TO SOLUTION ROUTINE
 MATRIX PRECONDITIONING TYPE :    1
      81206 ELEMENTS IN X ARRAY ARE USED BY PCG
      70000 ELEMENTS IN IX ARRAY ARE USED BY PCG
     122412 ELEMENTS IN Z ARRAY ARE USED BY PCG

      81206  ELEMENTS OF X ARRAY USED OUT OF      81206
     122412  ELEMENTS OF Z ARRAY USED OUT OF     122412
      70000  ELEMENTS OF IX ARRAY USED OUT OF      70000
          0  ELEMENTS OF XHS ARRAY USED OUT OF          1



                                    SOLUTION BY THE CONJUGATE-GRADIENT METHOD
                                   -------------------------------------------
                    MAXIMUM NUMBER OF CALLS TO PCG ROUTINE =     1000
                        MAXIMUM ITERATIONS PER CALL TO PCG =       10
                               MATRIX PRECONDITIONING TYPE =        1
        RELAXATION FACTOR (ONLY USED WITH PRECOND. TYPE 1) =    0.10000E+01
 PARAMETER OF POLYNOMIAL PRECOND. = 2 (2) OR IS CALCULATED :        2
                         HEAD CHANGE CRITERION FOR CLOSURE =    0.10000E-02
                     RESIDUAL CHANGE CRITERION FOR CLOSURE =    0.10000E+00
            PCG HEAD AND RESIDUAL CHANGE PRINTOUT INTERVAL =        1
     PRINTING FROM SOLVER IS LIMITED(1) OR SUPPRESSED (>1) =        1
                                         DAMPING PARAMETER =    0.10000E+01
 
 # MNW1 Package benchmarking - Transient 4                                       
 THE FREE FORMAT OPTION HAS BEEN SELECTED
    3 LAYERS       101 ROWS       101 COLUMNS
    1 STRESS PERIOD(S) IN SIMULATION

 BAS6 -- BASIC PACKAGE, VERSION 6, 1/11/2000 INPUT READ FROM UNIT    9
         15 ELEMENTS IN IR ARRAY ARE USED BY BAS

 BCF6 -- BLOCK-CENTERED FLOW PACKAGE, VERSION 6, 1/11/2000
         INPUT READ FROM UNIT 10
 TRANSIENT SIMULATION
 HEAD AT CELLS THAT CONVERT TO DRY=  0.10000E+31
 WETTING CAPABILITY IS NOT ACTIVE
      LAYER  LAYER-TYPE CODE     INTERBLOCK T
      --------------------------------------------
         1            0          0 -- HARMONIC    
         2            0          0 -- HARMONIC    
         3            0          0 -- HARMONIC    
      30606 ELEMENTS IN RX ARRAY ARE USED BY BCF

 MNW1 -- MULTI-NODE WELL PACKAGE, VERSION 1, 8/13/2002.
    INPUT READ FROM UNIT  75
 MAXIMUM OF    2 WELLS
 CELL-BY-CELL FLOWS WILL BE PRINTED WHEN ICBCFL NOT 0
  The heads at the beginning of SP:   1 will be the default reference elevations.

 Flow rates will not be estimated after the9999th iteration

  A WEL1   data input file will be written to t.wl1 on unit   91                

  A BYNODE data input file will be written to t.ByNode on unit   92             

  A QSUM   data input file will be written to t.Qsum on unit   93               
  30603 ELEMENTS IN X ARRAY ARE USED FOR MNW1

      30606  ELEMENTS OF RX ARRAY USED OUT OF      30606
      30657  ELEMENTS OF RZ ARRAY USED OUT OF      30657
         15  ELEMENTS OF IR ARRAY USED OUT OF         15
1
 # MNW1 Package benchmarking - Transient 4                                       
                                                                                 



                     BOUNDARY ARRAY FOR LAYER   1
 READING ON UNIT    9 WITH FORMAT: (20I3)              

           BOUNDARY ARRAY =              0 FOR LAYER   2



                     BOUNDARY ARRAY FOR LAYER   3
 READING ON UNIT    9 WITH FORMAT: (20I3)              

 AQUIFER HEAD WILL BE SET TO  999.00     AT ALL NO-FLOW NODES (IBOUND=0).

             INITIAL HEAD =   30.0000     FOR LAYER   1

             INITIAL HEAD =   20.0000     FOR LAYER   2

             INITIAL HEAD =   10.0000     FOR LAYER   3

 OUTPUT CONTROL IS SPECIFIED EVERY TIME STEP
 HEAD PRINT FORMAT CODE IS   0    DRAWDOWN PRINT FORMAT CODE IS   0
 HEADS WILL BE SAVED ON UNIT   89    DRAWDOWNS WILL BE SAVED ON UNIT    0

 COLUMN TO ROW ANISOTROPY =   1.00000    

     PRIMARY STORAGE COEF =  1.000000E-04 FOR LAYER   1

     TRANSMIS. ALONG ROWS =  4.630000E-02 FOR LAYER   1

 VERT HYD COND /THICKNESS =   0.00000     FOR LAYER   1

     PRIMARY STORAGE COEF =  1.000000E-04 FOR LAYER   2

     TRANSMIS. ALONG ROWS =   0.00000     FOR LAYER   2

 VERT HYD COND /THICKNESS =   0.00000     FOR LAYER   2

     PRIMARY STORAGE COEF =  1.000000E-04 FOR LAYER   3

     TRANSMIS. ALONG ROWS =  1.157000E-02 FOR LAYER   3
1
                            STRESS PERIOD NO.    1, LENGTH =  0.8640000E+08
                            -----------------------------------------------

                              NUMBER OF TIME STEPS =   100

                               MULTIPLIER FOR DELT =     1.100

                            INITIAL TIME STEP SIZE =   627.0118    
0              2 MNW WELLS
    No.   Lay   Row   Col    Stress   QW param      Rw       Skin    WL Limit    WL Refer   NonLinear Cp  QW Group  Cell-To-Well  Min-Qoff  Min-Qon  Site Identifier 
      1     1    51    51  0.000      0.000     0.5000      0.000      0.000      100.0      0.00000             1 0.425903         0.000     0.000  Well-1                          
      2     3    51    51  0.000      0.000     0.5000      0.000      0.000      100.0      0.00000             1 0.106430         0.000     0.000  Well-1                          
 
 SOLVING FOR HEAD 


     6 CALLS TO PCG ROUTINE FOR TIME STEP   1 IN STRESS PERIOD    1
    42 TOTAL ITERATIONS

 HEAD/DRAWDOWN PRINTOUT FLAG = 1     TOTAL BUDGET PRINTOUT FLAG = 0
 CELL-BY-CELL FLOW TERM FLAG = 1

 OUTPUT FLAGS FOR ALL LAYERS ARE THE SAME:
   HEAD    DRAWDOWN  HEAD  DRAWDOWN
 PRINTOUT  PRINTOUT  SAVE    SAVE
 ----------------------------------
     0         0       1       0

              MNW PERIOD =    1  STEP =    1
  Entry LAY ROW COL         Q      H-Well       H-Cell       DD           QW-Avg      s-LINEAR   s-NonLINEAR
      1   1  51  51 -.176049      25.6652      26.0785     -74.3348      0.00000     0.413369      0.00000    
      2   3  51  51 0.176049      25.6652      24.0110     -74.3348      0.00000     -1.65418      0.00000    

      Multi-Node Rates & Average QW 
 Site Identifier      ENTRY: Begin - End  Q-Total       H-Well       DD           QW-Avg
Well-1                          1     2 0.102696E-14  25.6652     -74.3348      0.00000    
 
 UBUDSV SAVING "             MNW" ON UNIT 90 AT TIME STEP  1, STRESS PERIOD    1


 ***Link-MT3DMS Package***
 OPENING LINK-MT3DMS OUTPUT FILE: t5.ftl                                                                                                                                                                                                  
 ON UNIT NUMBER:   333
 FILE TYPE: UNFORMATTED
 HEADER OPTION: EXTENDED
 ***Link-MT3DMS Package***


 SAVING SATURATED THICKNESS AND FLOW TERMS ON UNIT  333 FOR MT3DMS
 BY THE LINK-MT3DMS PACKAGE V6.3 AT TIME STEP    1, STRESS PERIOD    1


 HEAD WILL BE SAVED ON UNIT   89 AT END OF TIME STEP   1, STRESS PERIOD    1
 
 SOLVING FOR HEAD 
     4 CALLS TO PCG ROUTINE FOR TIME STEP   2 IN STRESS PERIOD    1
    27 TOTAL ITERATIONS

 HEAD/DRAWDOWN PRINTOUT FLAG = 0     TOTAL BUDGET PRINTOUT FLAG = 1
 CELL-BY-CELL FLOW TERM FLAG = 0
 REUSING PREVIOUS VALUES OF IOFLG

 SAVING SATURATED THICKNESS AND FLOW TERMS ON UNIT  333 FOR MT3DMS
 BY THE LINK-MT3DMS PACKAGE V6.3 AT TIME STEP    2, STRESS PERIOD    1

1
  VOLUMETRIC BUDGET FOR ENTIRE MODEL AT END OF TIME STEP  2 IN STRESS PERIOD   1
  ------------------------------------------------------------------------------

     CUMULATIVE VOLUMES      L**3       RATES FOR THIS TIME STEP      L**3/T
     ------------------                 ------------------------

           IN:                                      IN:
           ---                                      ---
             STORAGE =         222.3189               STORAGE =           0.1623
       CONSTANT HEAD =       6.2838E-04         CONSTANT HEAD =       6.2713E-07
                 MNW =         222.3909                   MNW =           0.1624

            TOTAL IN =         444.7104              TOTAL IN =           0.3247

          OUT:                                     OUT:
          ----                                     ----
             STORAGE =         222.3047               STORAGE =           0.1622
       CONSTANT HEAD =       3.3681E-03         CONSTANT HEAD =       2.0193E-06
                 MNW =         222.3909                   MNW =           0.1624

           TOTAL OUT =         444.6989             TOTAL OUT =           0.3246

            IN - OUT =       1.1466E-02              IN - OUT =       1.3425E-04

 PERCENT DISCREPANCY =           0.00     PERCENT DISCREPANCY =           0.04






          TIME SUMMARY AT END OF TIME STEP   2 IN STRESS PERIOD    1
                    SECONDS     MINUTES      HOURS       DAYS        YEARS
                    -----------------------------------------------------------
   TIME STEP LENGTH  689.71      11.495     0.19159     7.98279E-03 2.18557E-05
 STRESS PERIOD TIME  1316.7      21.945     0.36576     1.52399E-02 4.17245E-05
         TOTAL TIME  1316.7      21.945     0.36576     1.52399E-02 4.17245E-05
1
 
 SOLVING FOR HEAD 
     4 CALLS TO PCG ROUTINE FOR TIME STEP   3 IN STRESS PERIOD    1
    25 TOTAL ITERATIONS

 HEAD/DRAWDOWN PRINTOUT FLAG = 0     TOTAL BUDGET PRINTOUT FLAG = 1
 CELL-BY-CELL FLOW TERM FLAG = 0
 REUSING PREVIOUS VALUES OF IOFLG

 SAVING SATURATED THICKNESS AND FLOW TERMS ON UNIT  333 FOR MT3DMS
 BY THE LINK-MT3DMS PACKAGE V6.3 AT TIME STEP    3, STRESS PERIOD    1

1
  VOLUMETRIC BUDGET FOR ENTIRE MODEL AT END OF TIME STEP  3 IN STRESS PERIOD   1
  ------------------------------------------------------------------------------

     CUMULATIVE VOLUMES      L**3       RATES FOR THIS TIME STEP      L**3/T
     ------------------                 ------------------------

           IN:                                      IN:
           ---                                      ---
             STORAGE =         340.8539               STORAGE =           0.1562
       CONSTANT HEAD =       8.3992E-04         CONSTANT HEAD =       2.7882E-07
                 MNW =         340.8606                   MNW =           0.1562

            TOTAL IN =         681.7154              TOTAL IN =           0.3124

          OUT:                                     OUT:
          ----                                     ----
             STORAGE =         340.6978               STORAGE =           0.1561
       CONSTANT HEAD =       5.3463E-03         CONSTANT HEAD =       2.6075E-06
                 MNW =         340.8606                   MNW =           0.1562

           TOTAL OUT =         681.5638             TOTAL OUT =           0.3122

            IN - OUT =           0.1517              IN - OUT =       1.8479E-04

 PERCENT DISCREPANCY =           0.02     PERCENT DISCREPANCY =           0.06






          TIME SUMMARY AT END OF TIME STEP   3 IN STRESS PERIOD    1
                    SECONDS     MINUTES      HOURS       DAYS        YEARS
                    -----------------------------------------------------------
   TIME STEP LENGTH  758.68      12.645     0.21075     8.78107E-03 2.40413E-05
 STRESS PERIOD TIME  2075.4      34.590     0.57650     2.40209E-02 6.57658E-05
         TOTAL TIME  2075.4      34.590     0.57650     2.40209E-02 6.57658E-05
1
 
 SOLVING FOR HEAD 
     4 CALLS TO PCG ROUTINE FOR TIME STEP   4 IN STRESS PERIOD    1
    22 TOTAL ITERATIONS

 HEAD/DRAWDOWN PRINTOUT FLAG = 0     TOTAL BUDGET PRINTOUT FLAG = 1
 CELL-BY-CELL FLOW TERM FLAG = 0
 REUSING PREVIOUS VALUES OF IOFLG

 SAVING SATURATED THICKNESS AND FLOW TERMS ON UNIT  333 FOR MT3DMS
 BY THE LINK-MT3DMS PACKAGE V6.3 AT TIME STEP    4, STRESS PERIOD    1

1
  VOLUMETRIC BUDGET FOR ENTIRE MODEL AT END OF TIME STEP  4 IN STRESS PERIOD   1
  ------------------------------------------------------------------------------

     CUMULATIVE VOLUMES      L**3       RATES FOR THIS TIME STEP      L**3/T
     ------------------                 ------------------------

           IN:                                      IN:
           ---                                      ---
             STORAGE =         467.9393               STORAGE =           0.1523
       CONSTANT HEAD =       1.0970E-03         CONSTANT HEAD =       3.0808E-07
                 MNW =         467.8375                   MNW =           0.1521

            TOTAL IN =         935.7778              TOTAL IN =           0.3044

          OUT:                                     OUT:
          ----                                     ----
             STORAGE =         467.6517               STORAGE =           0.1521
       CONSTANT HEAD =       7.4086E-03         CONSTANT HEAD =       2.4711E-06
                 MNW =         467.8375                   MNW =           0.1521

           TOTAL OUT =         935.4966             TOTAL OUT =           0.3043

            IN - OUT =           0.2813              IN - OUT =       1.5530E-04

 PERCENT DISCREPANCY =           0.03     PERCENT DISCREPANCY =           0.05






          TIME SUMMARY AT END OF TIME STEP   4 IN STRESS PERIOD    1
                    SECONDS     MINUTES      HOURS       DAYS        YEARS
                    -----------------------------------------------------------
   TIME STEP LENGTH  834.55      13.909     0.23182     9.65918E-03 2.64454E-05
 STRESS PERIOD TIME  2910.0      48.499     0.80832     3.36801E-02 9.22111E-05
         TOTAL TIME  2910.0      48.499     0.80832     3.36801E-02 9.22111E-05
1
 
 SOLVING FOR HEAD 
     4 CALLS TO PCG ROUTINE FOR TIME STEP   5 IN STRESS PERIOD    1
    20 TOTAL ITERATIONS

 HEAD/DRAWDOWN PRINTOUT FLAG = 0     TOTAL BUDGET PRINTOUT FLAG = 1
 CELL-BY-CELL FLOW TERM FLAG = 0
 REUSING PREVIOUS VALUES OF IOFLG

 SAVING SATURATED THICKNESS AND FLOW TERMS ON UNIT  333 FOR MT3DMS
 BY THE LINK-MT3DMS PACKAGE V6.3 AT TIME STEP    5, STRESS PERIOD    1

1
  VOLUMETRIC BUDGET FOR ENTIRE MODEL AT END OF TIME STEP  5 IN STRESS PERIOD   1
  ------------------------------------------------------------------------------

     CUMULATIVE VOLUMES      L**3       RATES FOR THIS TIME STEP      L**3/T
     ------------------                 ------------------------

           IN:                                      IN:
           ---                                      ---
             STORAGE =         604.9969               STORAGE =           0.1493
       CONSTANT HEAD =       1.3035E-03         CONSTANT HEAD =       2.2495E-07
                 MNW =         604.7859                   MNW =           0.1492

            TOTAL IN =        1209.7842              TOTAL IN =           0.2985

          OUT:                                     OUT:
          ----                                     ----
             STORAGE =         604.5949               STORAGE =           0.1492
       CONSTANT HEAD =       9.3166E-03         CONSTANT HEAD =       2.0784E-06
                 MNW =         604.7859                   MNW =           0.1492

           TOTAL OUT =        1209.3901             TOTAL OUT =           0.2984

            IN - OUT =           0.3940              IN - OUT =       1.2278E-04

 PERCENT DISCREPANCY =           0.03     PERCENT DISCREPANCY =           0.04






          TIME SUMMARY AT END OF TIME STEP   5 IN STRESS PERIOD    1
                    SECONDS     MINUTES      HOURS       DAYS        YEARS
                    -----------------------------------------------------------
   TIME STEP LENGTH  918.01      15.300     0.25500     1.06251E-02 2.90899E-05
 STRESS PERIOD TIME  3828.0      63.800      1.0633     4.43052E-02 1.21301E-04
         TOTAL TIME  3828.0      63.800      1.0633     4.43052E-02 1.21301E-04
1
 
 SOLVING FOR HEAD 
     4 CALLS TO PCG ROUTINE FOR TIME STEP   6 IN STRESS PERIOD    1
    20 TOTAL ITERATIONS

 HEAD/DRAWDOWN PRINTOUT FLAG = 0     TOTAL BUDGET PRINTOUT FLAG = 1
 CELL-BY-CELL FLOW TERM FLAG = 0
 REUSING PREVIOUS VALUES OF IOFLG

 SAVING SATURATED THICKNESS AND FLOW TERMS ON UNIT  333 FOR MT3DMS
 BY THE LINK-MT3DMS PACKAGE V6.3 AT TIME STEP    6, STRESS PERIOD    1

1
  VOLUMETRIC BUDGET FOR ENTIRE MODEL AT END OF TIME STEP  6 IN STRESS PERIOD   1
  ------------------------------------------------------------------------------

     CUMULATIVE VOLUMES      L**3       RATES FOR THIS TIME STEP      L**3/T
     ------------------                 ------------------------

           IN:                                      IN:
           ---                                      ---
             STORAGE =         753.3337               STORAGE =           0.1469
       CONSTANT HEAD =       1.6781E-03         CONSTANT HEAD =       3.7088E-07
                 MNW =         753.0176                   MNW =           0.1468

            TOTAL IN =        1506.3530              TOTAL IN =           0.2937

          OUT:                                     OUT:
          ----                                     ----
             STORAGE =         752.8344               STORAGE =           0.1468
       CONSTANT HEAD =       1.0498E-02         CONSTANT HEAD =       1.1696E-06
                 MNW =         753.0176                   MNW =           0.1468

           TOTAL OUT =        1505.8624             TOTAL OUT =           0.2936

            IN - OUT =           0.4906              IN - OUT =       9.5701E-05

 PERCENT DISCREPANCY =           0.03     PERCENT DISCREPANCY =           0.03






          TIME SUMMARY AT END OF TIME STEP   6 IN STRESS PERIOD    1
                    SECONDS     MINUTES      HOURS       DAYS        YEARS
                    -----------------------------------------------------------
   TIME STEP LENGTH  1009.8      16.830     0.28050     1.16876E-02 3.19989E-05
 STRESS PERIOD TIME  4837.8      80.630      1.3438     5.59928E-02 1.53300E-04
         TOTAL TIME  4837.8      80.630      1.3438     5.59928E-02 1.53300E-04
1
 
 SOLVING FOR HEAD 
     4 CALLS TO PCG ROUTINE FOR TIME STEP   7 IN STRESS PERIOD    1
    20 TOTAL ITERATIONS

 HEAD/DRAWDOWN PRINTOUT FLAG = 0     TOTAL BUDGET PRINTOUT FLAG = 1
 CELL-BY-CELL FLOW TERM FLAG = 0
 REUSING PREVIOUS VALUES OF IOFLG

 SAVING SATURATED THICKNESS AND FLOW TERMS ON UNIT  333 FOR MT3DMS
 BY THE LINK-MT3DMS PACKAGE V6.3 AT TIME STEP    7, STRESS PERIOD    1

1
  VOLUMETRIC BUDGET FOR ENTIRE MODEL AT END OF TIME STEP  7 IN STRESS PERIOD   1
  ------------------------------------------------------------------------------

     CUMULATIVE VOLUMES      L**3       RATES FOR THIS TIME STEP      L**3/T
     ------------------                 ------------------------

           IN:                                      IN:
           ---                                      ---
             STORAGE =         914.2494               STORAGE =           0.1449
       CONSTANT HEAD =       2.2676E-03         CONSTANT HEAD =       5.3077E-07
                 MNW =         913.8395                   MNW =           0.1448

            TOTAL IN =        1828.0912              TOTAL IN =           0.2896

          OUT:                                     OUT:
          ----                                     ----
             STORAGE =         913.6625               STORAGE =           0.1448
       CONSTANT HEAD =       1.1833E-02         CONSTANT HEAD =       1.2024E-06
                 MNW =         913.8395                   MNW =           0.1448

           TOTAL OUT =        1827.5139             TOTAL OUT =           0.2896

            IN - OUT =           0.5773              IN - OUT =       7.8066E-05

 PERCENT DISCREPANCY =           0.03     PERCENT DISCREPANCY =           0.03






          TIME SUMMARY AT END OF TIME STEP   7 IN STRESS PERIOD    1
                    SECONDS     MINUTES      HOURS       DAYS        YEARS
                    -----------------------------------------------------------
   TIME STEP LENGTH  1110.8      18.513     0.30855     1.28564E-02 3.51988E-05
 STRESS PERIOD TIME  5948.6      99.143      1.6524     6.88492E-02 1.88499E-04
         TOTAL TIME  5948.6      99.143      1.6524     6.88492E-02 1.88499E-04
1
 
 SOLVING FOR HEAD 
     4 CALLS TO PCG ROUTINE FOR TIME STEP   8 IN STRESS PERIOD    1
    20 TOTAL ITERATIONS

 HEAD/DRAWDOWN PRINTOUT FLAG = 0     TOTAL BUDGET PRINTOUT FLAG = 1
 CELL-BY-CELL FLOW TERM FLAG = 0
 REUSING PREVIOUS VALUES OF IOFLG

 SAVING SATURATED THICKNESS AND FLOW TERMS ON UNIT  333 FOR MT3DMS
 BY THE LINK-MT3DMS PACKAGE V6.3 AT TIME STEP    8, STRESS PERIOD    1

1
  VOLUMETRIC BUDGET FOR ENTIRE MODEL AT END OF TIME STEP  8 IN STRESS PERIOD   1
  ------------------------------------------------------------------------------

     CUMULATIVE VOLUMES      L**3       RATES FOR THIS TIME STEP      L**3/T
     ------------------                 ------------------------

           IN:                                      IN:
           ---                                      ---
             STORAGE =        1089.1171               STORAGE =           0.1431
       CONSTANT HEAD =       2.5161E-03         CONSTANT HEAD =       2.0336E-07
                 MNW =        1088.6064                   MNW =           0.1430

            TOTAL IN =        2177.7261              TOTAL IN =           0.2861

          OUT:                                     OUT:
          ----                                     ----
             STORAGE =        1088.4485               STORAGE =           0.1430
       CONSTANT HEAD =       1.5394E-02         CONSTANT HEAD =       2.9141E-06
                 MNW =        1088.6064                   MNW =           0.1430

           TOTAL OUT =        2177.0703             TOTAL OUT =           0.2861

            IN - OUT =           0.6557              IN - OUT =       6.4181E-05

 PERCENT DISCREPANCY =           0.03     PERCENT DISCREPANCY =           0.02






          TIME SUMMARY AT END OF TIME STEP   8 IN STRESS PERIOD    1
                    SECONDS     MINUTES      HOURS       DAYS        YEARS
                    -----------------------------------------------------------
   TIME STEP LENGTH  1221.9      20.364     0.33941     1.41420E-02 3.87187E-05
 STRESS PERIOD TIME  7170.4      119.51      1.9918     8.29912E-02 2.27217E-04
         TOTAL TIME  7170.4      119.51      1.9918     8.29912E-02 2.27217E-04
1
 
 SOLVING FOR HEAD 
     4 CALLS TO PCG ROUTINE FOR TIME STEP   9 IN STRESS PERIOD    1
    17 TOTAL ITERATIONS

 HEAD/DRAWDOWN PRINTOUT FLAG = 0     TOTAL BUDGET PRINTOUT FLAG = 1
 CELL-BY-CELL FLOW TERM FLAG = 0
 REUSING PREVIOUS VALUES OF IOFLG

 SAVING SATURATED THICKNESS AND FLOW TERMS ON UNIT  333 FOR MT3DMS
 BY THE LINK-MT3DMS PACKAGE V6.3 AT TIME STEP    9, STRESS PERIOD    1

1
  VOLUMETRIC BUDGET FOR ENTIRE MODEL AT END OF TIME STEP  9 IN STRESS PERIOD   1
  ------------------------------------------------------------------------------

     CUMULATIVE VOLUMES      L**3       RATES FOR THIS TIME STEP      L**3/T
     ------------------                 ------------------------

           IN:                                      IN:
           ---                                      ---
             STORAGE =        1279.4534               STORAGE =           0.1416
       CONSTANT HEAD =       3.1686E-03         CONSTANT HEAD =       4.8545E-07
                 MNW =        1278.7299                   MNW =           0.1415

            TOTAL IN =        2558.1863              TOTAL IN =           0.2831

          OUT:                                     OUT:
          ----                                     ----
             STORAGE =        1278.6565               STORAGE =           0.1415
       CONSTANT HEAD =       1.9630E-02         CONSTANT HEAD =       3.1517E-06
                 MNW =        1278.7299                   MNW =           0.1415

           TOTAL OUT =        2557.4060             TOTAL OUT =           0.2830

            IN - OUT =           0.7804              IN - OUT =       9.2791E-05

 PERCENT DISCREPANCY =           0.03     PERCENT DISCREPANCY =           0.03






          TIME SUMMARY AT END OF TIME STEP   9 IN STRESS PERIOD    1
                    SECONDS     MINUTES      HOURS       DAYS        YEARS
                    -----------------------------------------------------------
   TIME STEP LENGTH  1344.1      22.401     0.37335     1.55562E-02 4.25906E-05
 STRESS PERIOD TIME  8514.5      141.91      2.3651     9.85474E-02 2.69808E-04
         TOTAL TIME  8514.5      141.91      2.3651     9.85474E-02 2.69808E-04
1
 
 SOLVING FOR HEAD 
     4 CALLS TO PCG ROUTINE FOR TIME STEP  10 IN STRESS PERIOD    1
    17 TOTAL ITERATIONS

 HEAD/DRAWDOWN PRINTOUT FLAG = 0     TOTAL BUDGET PRINTOUT FLAG = 1
 CELL-BY-CELL FLOW TERM FLAG = 0
 REUSING PREVIOUS VALUES OF IOFLG

 SAVING SATURATED THICKNESS AND FLOW TERMS ON UNIT  333 FOR MT3DMS
 BY THE LINK-MT3DMS PACKAGE V6.3 AT TIME STEP   10, STRESS PERIOD    1

1
  VOLUMETRIC BUDGET FOR ENTIRE MODEL AT END OF TIME STEP 10 IN STRESS PERIOD   1
  ------------------------------------------------------------------------------

     CUMULATIVE VOLUMES      L**3       RATES FOR THIS TIME STEP      L**3/T
     ------------------                 ------------------------

           IN:                                      IN:
           ---                                      ---
             STORAGE =        1486.7416               STORAGE =           0.1402
       CONSTANT HEAD =       3.7199E-03         CONSTANT HEAD =       3.7291E-07
                 MNW =        1485.7800                   MNW =           0.1400

            TOTAL IN =        2972.5254              TOTAL IN =           0.2803

          OUT:                                     OUT:
          ----                                     ----
             STORAGE =        1485.8000               STORAGE =           0.1401
       CONSTANT HEAD =       2.3243E-02         CONSTANT HEAD =       2.4440E-06
                 MNW =        1485.7800                   MNW =           0.1400

           TOTAL OUT =        2971.6033             TOTAL OUT =           0.2802

            IN - OUT =           0.9220              IN - OUT =       9.5800E-05

 PERCENT DISCREPANCY =           0.03     PERCENT DISCREPANCY =           0.03






          TIME SUMMARY AT END OF TIME STEP  10 IN STRESS PERIOD    1
                    SECONDS     MINUTES      HOURS       DAYS        YEARS
                    -----------------------------------------------------------
   TIME STEP LENGTH  1478.5      24.641     0.41068     1.71118E-02 4.68496E-05
 STRESS PERIOD TIME  9993.0      166.55      2.7758     0.11566     3.16658E-04
         TOTAL TIME  9993.0      166.55      2.7758     0.11566     3.16658E-04
1
 
 SOLVING FOR HEAD 
     4 CALLS TO PCG ROUTINE FOR TIME STEP  11 IN STRESS PERIOD    1
    17 TOTAL ITERATIONS

 HEAD/DRAWDOWN PRINTOUT FLAG = 0     TOTAL BUDGET PRINTOUT FLAG = 1
 CELL-BY-CELL FLOW TERM FLAG = 0
 REUSING PREVIOUS VALUES OF IOFLG

 SAVING SATURATED THICKNESS AND FLOW TERMS ON UNIT  333 FOR MT3DMS
 BY THE LINK-MT3DMS PACKAGE V6.3 AT TIME STEP   11, STRESS PERIOD    1

1
  VOLUMETRIC BUDGET FOR ENTIRE MODEL AT END OF TIME STEP 11 IN STRESS PERIOD   1
  ------------------------------------------------------------------------------

     CUMULATIVE VOLUMES      L**3       RATES FOR THIS TIME STEP      L**3/T
     ------------------                 ------------------------

           IN:                                      IN:
           ---                                      ---
             STORAGE =        1712.6163               STORAGE =           0.1389
       CONSTANT HEAD =       5.0617E-03         CONSTANT HEAD =       8.2504E-07
                 MNW =        1711.4276                   MNW =           0.1387

            TOTAL IN =        3424.0491              TOTAL IN =           0.2776

          OUT:                                     OUT:
          ----                                     ----
             STORAGE =        1711.5471               STORAGE =           0.1388
       CONSTANT HEAD =       2.6013E-02         CONSTANT HEAD =       1.7032E-06
                 MNW =        1711.4276                   MNW =           0.1387

           TOTAL OUT =        3423.0007             TOTAL OUT =           0.2776

            IN - OUT =           1.0483              IN - OUT =       7.7606E-05

 PERCENT DISCREPANCY =           0.03     PERCENT DISCREPANCY =           0.03






          TIME SUMMARY AT END OF TIME STEP  11 IN STRESS PERIOD    1
                    SECONDS     MINUTES      HOURS       DAYS        YEARS
                    -----------------------------------------------------------
   TIME STEP LENGTH  1626.3      27.105     0.45175     1.88230E-02 5.15346E-05
 STRESS PERIOD TIME  11619.      193.65      3.2276     0.13448     3.68192E-04
         TOTAL TIME  11619.      193.65      3.2276     0.13448     3.68192E-04
1
 
 SOLVING FOR HEAD 
     3 CALLS TO PCG ROUTINE FOR TIME STEP  12 IN STRESS PERIOD    1
    15 TOTAL ITERATIONS

 HEAD/DRAWDOWN PRINTOUT FLAG = 0     TOTAL BUDGET PRINTOUT FLAG = 1
 CELL-BY-CELL FLOW TERM FLAG = 0
 REUSING PREVIOUS VALUES OF IOFLG

 SAVING SATURATED THICKNESS AND FLOW TERMS ON UNIT  333 FOR MT3DMS
 BY THE LINK-MT3DMS PACKAGE V6.3 AT TIME STEP   12, STRESS PERIOD    1

1
  VOLUMETRIC BUDGET FOR ENTIRE MODEL AT END OF TIME STEP 12 IN STRESS PERIOD   1
  ------------------------------------------------------------------------------

     CUMULATIVE VOLUMES      L**3       RATES FOR THIS TIME STEP      L**3/T
     ------------------                 ------------------------

           IN:                                      IN:
           ---                                      ---
             STORAGE =        1959.0066               STORAGE =           0.1377
       CONSTANT HEAD =       6.1484E-03         CONSTANT HEAD =       6.0746E-07
                 MNW =        1957.4781                   MNW =           0.1375

            TOTAL IN =        3916.4910              TOTAL IN =           0.2753

          OUT:                                     OUT:
          ----                                     ----
             STORAGE =        1957.7554               STORAGE =           0.1376
       CONSTANT HEAD =       2.9799E-02         CONSTANT HEAD =       2.1161E-06
                 MNW =        1957.4781                   MNW =           0.1375

           TOTAL OUT =        3915.2634             TOTAL OUT =           0.2752

            IN - OUT =           1.2276              IN - OUT =       1.0030E-04

 PERCENT DISCREPANCY =           0.03     PERCENT DISCREPANCY =           0.04






          TIME SUMMARY AT END OF TIME STEP  12 IN STRESS PERIOD    1
                    SECONDS     MINUTES      HOURS       DAYS        YEARS
                    -----------------------------------------------------------
   TIME STEP LENGTH  1788.9      29.816     0.49693     2.07053E-02 5.66880E-05
 STRESS PERIOD TIME  13408.      223.47      3.7245     0.15519     4.24880E-04
         TOTAL TIME  13408.      223.47      3.7245     0.15519     4.24880E-04
1
 
 SOLVING FOR HEAD 
     3 CALLS TO PCG ROUTINE FOR TIME STEP  13 IN STRESS PERIOD    1
    15 TOTAL ITERATIONS

 HEAD/DRAWDOWN PRINTOUT FLAG = 0     TOTAL BUDGET PRINTOUT FLAG = 1
 CELL-BY-CELL FLOW TERM FLAG = 0
 REUSING PREVIOUS VALUES OF IOFLG

 SAVING SATURATED THICKNESS AND FLOW TERMS ON UNIT  333 FOR MT3DMS
 BY THE LINK-MT3DMS PACKAGE V6.3 AT TIME STEP   13, STRESS PERIOD    1

1
  VOLUMETRIC BUDGET FOR ENTIRE MODEL AT END OF TIME STEP 13 IN STRESS PERIOD   1
  ------------------------------------------------------------------------------

     CUMULATIVE VOLUMES      L**3       RATES FOR THIS TIME STEP      L**3/T
     ------------------                 ------------------------

           IN:                                      IN:
           ---                                      ---
             STORAGE =        2227.7898               STORAGE =           0.1366
       CONSTANT HEAD =       8.5065E-03         CONSTANT HEAD =       1.1984E-06
                 MNW =        2225.9167                   MNW =           0.1364

            TOTAL IN =        4453.7148              TOTAL IN =           0.2730

          OUT:                                     OUT:
          ----                                     ----
             STORAGE =        2226.3760               STORAGE =           0.1365
       CONSTANT HEAD =       3.3827E-02         CONSTANT HEAD =       2.0469E-06
                 MNW =        2225.9167                   MNW =           0.1364

           TOTAL OUT =        4452.3267             TOTAL OUT =           0.2729

            IN - OUT =           1.3885              IN - OUT =       8.1764E-05

 PERCENT DISCREPANCY =           0.03     PERCENT DISCREPANCY =           0.03






          TIME SUMMARY AT END OF TIME STEP  13 IN STRESS PERIOD    1
                    SECONDS     MINUTES      HOURS       DAYS        YEARS
                    -----------------------------------------------------------
   TIME STEP LENGTH  1967.8      32.797     0.54662     2.27758E-02 6.23569E-05
 STRESS PERIOD TIME  15376.      256.27      4.2711     0.17796     4.87237E-04
         TOTAL TIME  15376.      256.27      4.2711     0.17796     4.87237E-04
1
 
 SOLVING FOR HEAD 
     3 CALLS TO PCG ROUTINE FOR TIME STEP  14 IN STRESS PERIOD    1
    16 TOTAL ITERATIONS

 HEAD/DRAWDOWN PRINTOUT FLAG = 0     TOTAL BUDGET PRINTOUT FLAG = 1
 CELL-BY-CELL FLOW TERM FLAG = 0
 REUSING PREVIOUS VALUES OF IOFLG

 SAVING SATURATED THICKNESS AND FLOW TERMS ON UNIT  333 FOR MT3DMS
 BY THE LINK-MT3DMS PACKAGE V6.3 AT TIME STEP   14, STRESS PERIOD    1

1
  VOLUMETRIC BUDGET FOR ENTIRE MODEL AT END OF TIME STEP 14 IN STRESS PERIOD   1
  ------------------------------------------------------------------------------

     CUMULATIVE VOLUMES      L**3       RATES FOR THIS TIME STEP      L**3/T
     ------------------                 ------------------------

           IN:                                      IN:
           ---                                      ---
             STORAGE =        2521.1484               STORAGE =           0.1355
       CONSTANT HEAD =       1.6876E-02         CONSTANT HEAD =       3.8664E-06
                 MNW =        2518.8987                   MNW =           0.1354

            TOTAL IN =        5040.0640              TOTAL IN =           0.2709

          OUT:                                     OUT:
          ----                                     ----
             STORAGE =        2519.5310               STORAGE =           0.1354
       CONSTANT HEAD =       3.5424E-02         CONSTANT HEAD =       7.3794E-07
                 MNW =        2518.8987                   MNW =           0.1354

           TOTAL OUT =        5038.4653             TOTAL OUT =           0.2708

            IN - OUT =           1.5989              IN - OUT =       9.7155E-05

 PERCENT DISCREPANCY =           0.03     PERCENT DISCREPANCY =           0.04






          TIME SUMMARY AT END OF TIME STEP  14 IN STRESS PERIOD    1
                    SECONDS     MINUTES      HOURS       DAYS        YEARS
                    -----------------------------------------------------------
   TIME STEP LENGTH  2164.6      36.077     0.60128     2.50534E-02 6.85925E-05
 STRESS PERIOD TIME  17541.      292.34      4.8724     0.20302     5.55830E-04
         TOTAL TIME  17541.      292.34      4.8724     0.20302     5.55830E-04
1
 
 SOLVING FOR HEAD 
     3 CALLS TO PCG ROUTINE FOR TIME STEP  15 IN STRESS PERIOD    1
    16 TOTAL ITERATIONS

 HEAD/DRAWDOWN PRINTOUT FLAG = 0     TOTAL BUDGET PRINTOUT FLAG = 1
 CELL-BY-CELL FLOW TERM FLAG = 0
 REUSING PREVIOUS VALUES OF IOFLG

 SAVING SATURATED THICKNESS AND FLOW TERMS ON UNIT  333 FOR MT3DMS
 BY THE LINK-MT3DMS PACKAGE V6.3 AT TIME STEP   15, STRESS PERIOD    1

1
  VOLUMETRIC BUDGET FOR ENTIRE MODEL AT END OF TIME STEP 15 IN STRESS PERIOD   1
  ------------------------------------------------------------------------------

     CUMULATIVE VOLUMES      L**3       RATES FOR THIS TIME STEP      L**3/T
     ------------------                 ------------------------

           IN:                                      IN:
           ---                                      ---
             STORAGE =        2841.4019               STORAGE =           0.1345
       CONSTANT HEAD =       4.0590E-02         CONSTANT HEAD =       9.9594E-06
                 MNW =        2838.7756                   MNW =           0.1343

            TOTAL IN =        5680.2183              TOTAL IN =           0.2689

          OUT:                                     OUT:
          ----                                     ----
             STORAGE =        2839.6001               STORAGE =           0.1344
       CONSTANT HEAD =       3.5753E-02         CONSTANT HEAD =       1.3801E-07
                 MNW =        2838.7756                   MNW =           0.1343

           TOTAL OUT =        5678.4116             TOTAL OUT =           0.2688

            IN - OUT =           1.8066              IN - OUT =       8.7263E-05

 PERCENT DISCREPANCY =           0.03     PERCENT DISCREPANCY =           0.03






          TIME SUMMARY AT END OF TIME STEP  15 IN STRESS PERIOD    1
                    SECONDS     MINUTES      HOURS       DAYS        YEARS
                    -----------------------------------------------------------
   TIME STEP LENGTH  2381.1      39.685     0.66141     2.75588E-02 7.54518E-05
 STRESS PERIOD TIME  19922.      332.03      5.5338     0.23058     6.31282E-04
         TOTAL TIME  19922.      332.03      5.5338     0.23058     6.31282E-04
1
 
 SOLVING FOR HEAD 
     3 CALLS TO PCG ROUTINE FOR TIME STEP  16 IN STRESS PERIOD    1
    15 TOTAL ITERATIONS

 HEAD/DRAWDOWN PRINTOUT FLAG = 0     TOTAL BUDGET PRINTOUT FLAG = 1
 CELL-BY-CELL FLOW TERM FLAG = 0
 REUSING PREVIOUS VALUES OF IOFLG

 SAVING SATURATED THICKNESS AND FLOW TERMS ON UNIT  333 FOR MT3DMS
 BY THE LINK-MT3DMS PACKAGE V6.3 AT TIME STEP   16, STRESS PERIOD    1

1
  VOLUMETRIC BUDGET FOR ENTIRE MODEL AT END OF TIME STEP 16 IN STRESS PERIOD   1
  ------------------------------------------------------------------------------

     CUMULATIVE VOLUMES      L**3       RATES FOR THIS TIME STEP      L**3/T
     ------------------                 ------------------------

           IN:                                      IN:
           ---                                      ---
             STORAGE =        3191.1035               STORAGE =           0.1335
       CONSTANT HEAD =           0.1033         CONSTANT HEAD =       2.3958E-05
                 MNW =        3188.1177                   MNW =           0.1334

            TOTAL IN =        6379.3247              TOTAL IN =           0.2669

          OUT:                                     OUT:
          ----                                     ----
             STORAGE =        3189.1606               STORAGE =           0.1335
       CONSTANT HEAD =       3.6121E-02         CONSTANT HEAD =       1.4059E-07
                 MNW =        3188.1177                   MNW =           0.1334

           TOTAL OUT =        6377.3145             TOTAL OUT =           0.2668

            IN - OUT =           2.0101              IN - OUT =       7.7715E-05

 PERCENT DISCREPANCY =           0.03     PERCENT DISCREPANCY =           0.03






          TIME SUMMARY AT END OF TIME STEP  16 IN STRESS PERIOD    1
                    SECONDS     MINUTES      HOURS       DAYS        YEARS
                    -----------------------------------------------------------
   TIME STEP LENGTH  2619.2      43.653     0.72755     3.03146E-02 8.29970E-05
 STRESS PERIOD TIME  22541.      375.68      6.2614     0.26089     7.14279E-04
         TOTAL TIME  22541.      375.68      6.2614     0.26089     7.14279E-04
1
 
 SOLVING FOR HEAD 
     3 CALLS TO PCG ROUTINE FOR TIME STEP  17 IN STRESS PERIOD    1
    16 TOTAL ITERATIONS

 HEAD/DRAWDOWN PRINTOUT FLAG = 0     TOTAL BUDGET PRINTOUT FLAG = 1
 CELL-BY-CELL FLOW TERM FLAG = 0
 REUSING PREVIOUS VALUES OF IOFLG

 SAVING SATURATED THICKNESS AND FLOW TERMS ON UNIT  333 FOR MT3DMS
 BY THE LINK-MT3DMS PACKAGE V6.3 AT TIME STEP   17, STRESS PERIOD    1

1
  VOLUMETRIC BUDGET FOR ENTIRE MODEL AT END OF TIME STEP 17 IN STRESS PERIOD   1
  ------------------------------------------------------------------------------

     CUMULATIVE VOLUMES      L**3       RATES FOR THIS TIME STEP      L**3/T
     ------------------                 ------------------------

           IN:                                      IN:
           ---                                      ---
             STORAGE =        3573.0276               STORAGE =           0.1326
       CONSTANT HEAD =           0.2490         CONSTANT HEAD =       5.0553E-05
                 MNW =        3569.7346                   MNW =           0.1325

            TOTAL IN =        7143.0112              TOTAL IN =           0.2651

          OUT:                                     OUT:
          ----                                     ----
             STORAGE =        3571.0022               STORAGE =           0.1325
       CONSTANT HEAD =       3.6442E-02         CONSTANT HEAD =       1.1129E-07
                 MNW =        3569.7346                   MNW =           0.1325

           TOTAL OUT =        7140.7734             TOTAL OUT =           0.2650

            IN - OUT =           2.2379              IN - OUT =       7.9037E-05

 PERCENT DISCREPANCY =           0.03     PERCENT DISCREPANCY =           0.03






          TIME SUMMARY AT END OF TIME STEP  17 IN STRESS PERIOD    1
                    SECONDS     MINUTES      HOURS       DAYS        YEARS
                    -----------------------------------------------------------
   TIME STEP LENGTH  2881.1      48.018     0.80031     3.33461E-02 9.12967E-05
 STRESS PERIOD TIME  25422.      423.70      7.0617     0.29424     8.05575E-04
         TOTAL TIME  25422.      423.70      7.0617     0.29424     8.05575E-04
1
 
 SOLVING FOR HEAD 
     3 CALLS TO PCG ROUTINE FOR TIME STEP  18 IN STRESS PERIOD    1
    15 TOTAL ITERATIONS

 HEAD/DRAWDOWN PRINTOUT FLAG = 0     TOTAL BUDGET PRINTOUT FLAG = 1
 CELL-BY-CELL FLOW TERM FLAG = 0
 REUSING PREVIOUS VALUES OF IOFLG

 SAVING SATURATED THICKNESS AND FLOW TERMS ON UNIT  333 FOR MT3DMS
 BY THE LINK-MT3DMS PACKAGE V6.3 AT TIME STEP   18, STRESS PERIOD    1

1
  VOLUMETRIC BUDGET FOR ENTIRE MODEL AT END OF TIME STEP 18 IN STRESS PERIOD   1
  ------------------------------------------------------------------------------

     CUMULATIVE VOLUMES      L**3       RATES FOR THIS TIME STEP      L**3/T
     ------------------                 ------------------------

           IN:                                      IN:
           ---                                      ---
             STORAGE =        3990.1851               STORAGE =           0.1316
       CONSTANT HEAD =           0.5599         CONSTANT HEAD =       9.8088E-05
                 MNW =        3986.6982                   MNW =           0.1316

            TOTAL IN =        7977.4434              TOTAL IN =           0.2633

          OUT:                                     OUT:
          ----                                     ----
             STORAGE =        3988.2190               STORAGE =           0.1316
       CONSTANT HEAD =       3.6585E-02         CONSTANT HEAD =       4.5307E-08
                 MNW =        3986.6982                   MNW =           0.1316

           TOTAL OUT =        7974.9536             TOTAL OUT =           0.2632

            IN - OUT =           2.4893              IN - OUT =       7.9267E-05

 PERCENT DISCREPANCY =           0.03     PERCENT DISCREPANCY =           0.03






          TIME SUMMARY AT END OF TIME STEP  18 IN STRESS PERIOD    1
                    SECONDS     MINUTES      HOURS       DAYS        YEARS
                    -----------------------------------------------------------
   TIME STEP LENGTH  3169.2      52.820     0.88034     3.66807E-02 1.00426E-04
 STRESS PERIOD TIME  28591.      476.52      7.9420     0.33092     9.06002E-04
         TOTAL TIME  28591.      476.52      7.9420     0.33092     9.06002E-04
1
 
 SOLVING FOR HEAD 
     3 CALLS TO PCG ROUTINE FOR TIME STEP  19 IN STRESS PERIOD    1
    15 TOTAL ITERATIONS

 HEAD/DRAWDOWN PRINTOUT FLAG = 0     TOTAL BUDGET PRINTOUT FLAG = 1
 CELL-BY-CELL FLOW TERM FLAG = 0
 REUSING PREVIOUS VALUES OF IOFLG

 SAVING SATURATED THICKNESS AND FLOW TERMS ON UNIT  333 FOR MT3DMS
 BY THE LINK-MT3DMS PACKAGE V6.3 AT TIME STEP   19, STRESS PERIOD    1

1
  VOLUMETRIC BUDGET FOR ENTIRE MODEL AT END OF TIME STEP 19 IN STRESS PERIOD   1
  ------------------------------------------------------------------------------

     CUMULATIVE VOLUMES      L**3       RATES FOR THIS TIME STEP      L**3/T
     ------------------                 ------------------------

           IN:                                      IN:
           ---                                      ---
             STORAGE =        4445.7246               STORAGE =           0.1307
       CONSTANT HEAD =           1.2008         CONSTANT HEAD =       1.8386E-04
                 MNW =        4442.3716                   MNW =           0.1307

            TOTAL IN =        8889.2969              TOTAL IN =           0.2616

          OUT:                                     OUT:
          ----                                     ----
             STORAGE =        4444.1768               STORAGE =           0.1308
       CONSTANT HEAD =       3.6996E-02         CONSTANT HEAD =       1.1773E-07
                 MNW =        4442.3716                   MNW =           0.1307

           TOTAL OUT =        8886.5850             TOTAL OUT =           0.2615

            IN - OUT =           2.7117              IN - OUT =       6.3712E-05

 PERCENT DISCREPANCY =           0.03     PERCENT DISCREPANCY =           0.02






          TIME SUMMARY AT END OF TIME STEP  19 IN STRESS PERIOD    1
                    SECONDS     MINUTES      HOURS       DAYS        YEARS
                    -----------------------------------------------------------
   TIME STEP LENGTH  3486.1      58.102     0.96837     4.03488E-02 1.10469E-04
 STRESS PERIOD TIME  32077.      534.62      8.9104     0.37127     1.01647E-03
         TOTAL TIME  32077.      534.62      8.9104     0.37127     1.01647E-03
1
 
 SOLVING FOR HEAD 
     3 CALLS TO PCG ROUTINE FOR TIME STEP  20 IN STRESS PERIOD    1
    15 TOTAL ITERATIONS

 HEAD/DRAWDOWN PRINTOUT FLAG = 0     TOTAL BUDGET PRINTOUT FLAG = 1
 CELL-BY-CELL FLOW TERM FLAG = 0
 REUSING PREVIOUS VALUES OF IOFLG

 SAVING SATURATED THICKNESS AND FLOW TERMS ON UNIT  333 FOR MT3DMS
 BY THE LINK-MT3DMS PACKAGE V6.3 AT TIME STEP   20, STRESS PERIOD    1

1
  VOLUMETRIC BUDGET FOR ENTIRE MODEL AT END OF TIME STEP 20 IN STRESS PERIOD   1
  ------------------------------------------------------------------------------

     CUMULATIVE VOLUMES      L**3       RATES FOR THIS TIME STEP      L**3/T
     ------------------                 ------------------------

           IN:                                      IN:
           ---                                      ---
             STORAGE =        4943.0698               STORAGE =           0.1297
       CONSTANT HEAD =           2.4692         CONSTANT HEAD =       3.3076E-04
                 MNW =        4940.4307                   MNW =           0.1299

            TOTAL IN =        9885.9697              TOTAL IN =           0.2599

          OUT:                                     OUT:
          ----                                     ----
             STORAGE =        4942.5464               STORAGE =           0.1300
       CONSTANT HEAD =       3.7105E-02         CONSTANT HEAD =       2.8586E-08
                 MNW =        4940.4307                   MNW =           0.1299

           TOTAL OUT =        9883.0137             TOTAL OUT =           0.2598

            IN - OUT =           2.9555              IN - OUT =       6.3543E-05

 PERCENT DISCREPANCY =           0.03     PERCENT DISCREPANCY =           0.02






          TIME SUMMARY AT END OF TIME STEP  20 IN STRESS PERIOD    1
                    SECONDS     MINUTES      HOURS       DAYS        YEARS
                    -----------------------------------------------------------
   TIME STEP LENGTH  3834.7      63.912      1.0652     4.43837E-02 1.21516E-04
 STRESS PERIOD TIME  35912.      598.54      9.9756     0.41565     1.13799E-03
         TOTAL TIME  35912.      598.54      9.9756     0.41565     1.13799E-03
1
 
 SOLVING FOR HEAD 
     3 CALLS TO PCG ROUTINE FOR TIME STEP  21 IN STRESS PERIOD    1
    15 TOTAL ITERATIONS

 HEAD/DRAWDOWN PRINTOUT FLAG = 0     TOTAL BUDGET PRINTOUT FLAG = 1
 CELL-BY-CELL FLOW TERM FLAG = 0
 REUSING PREVIOUS VALUES OF IOFLG

 SAVING SATURATED THICKNESS AND FLOW TERMS ON UNIT  333 FOR MT3DMS
 BY THE LINK-MT3DMS PACKAGE V6.3 AT TIME STEP   21, STRESS PERIOD    1

1
  VOLUMETRIC BUDGET FOR ENTIRE MODEL AT END OF TIME STEP 21 IN STRESS PERIOD   1
  ------------------------------------------------------------------------------

     CUMULATIVE VOLUMES      L**3       RATES FOR THIS TIME STEP      L**3/T
     ------------------                 ------------------------

           IN:                                      IN:
           ---                                      ---
             STORAGE =        5485.7666               STORAGE =           0.1287
       CONSTANT HEAD =           4.8664         CONSTANT HEAD =       5.6830E-04
                 MNW =        5484.9014                   MNW =           0.1291

            TOTAL IN =       10975.5342              TOTAL IN =           0.2583

          OUT:                                     OUT:
          ----                                     ----
             STORAGE =        5487.3608               STORAGE =           0.1292
       CONSTANT HEAD =       3.7203E-02         CONSTANT HEAD =       2.3147E-08
                 MNW =        5484.9014                   MNW =           0.1291

           TOTAL OUT =       10972.2998             TOTAL OUT =           0.2582

            IN - OUT =           3.2350              IN - OUT =       6.6215E-05

 PERCENT DISCREPANCY =           0.03     PERCENT DISCREPANCY =           0.03






          TIME SUMMARY AT END OF TIME STEP  21 IN STRESS PERIOD    1
                    SECONDS     MINUTES      HOURS       DAYS        YEARS
                    -----------------------------------------------------------
   TIME STEP LENGTH  4218.2      70.304      1.1717     4.88220E-02 1.33667E-04
 STRESS PERIOD TIME  40130.      668.84      11.147     0.46447     1.27165E-03
         TOTAL TIME  40130.      668.84      11.147     0.46447     1.27165E-03
1
 
 SOLVING FOR HEAD 
     3 CALLS TO PCG ROUTINE FOR TIME STEP  22 IN STRESS PERIOD    1
    15 TOTAL ITERATIONS

 HEAD/DRAWDOWN PRINTOUT FLAG = 0     TOTAL BUDGET PRINTOUT FLAG = 1
 CELL-BY-CELL FLOW TERM FLAG = 0
 REUSING PREVIOUS VALUES OF IOFLG

 SAVING SATURATED THICKNESS AND FLOW TERMS ON UNIT  333 FOR MT3DMS
 BY THE LINK-MT3DMS PACKAGE V6.3 AT TIME STEP   22, STRESS PERIOD    1

1
  VOLUMETRIC BUDGET FOR ENTIRE MODEL AT END OF TIME STEP 22 IN STRESS PERIOD   1
  ------------------------------------------------------------------------------

     CUMULATIVE VOLUMES      L**3       RATES FOR THIS TIME STEP      L**3/T
     ------------------                 ------------------------

           IN:                                      IN:
           ---                                      ---
             STORAGE =        6077.3657               STORAGE =           0.1275
       CONSTANT HEAD =           9.2224         CONSTANT HEAD =       9.3878E-04
                 MNW =        6080.1890                   MNW =           0.1283

            TOTAL IN =       12166.7773              TOTAL IN =           0.2567

          OUT:                                     OUT:
          ----                                     ----
             STORAGE =        6083.0195               STORAGE =           0.1284
       CONSTANT HEAD =       3.7619E-02         CONSTANT HEAD =       8.9762E-08
                 MNW =        6080.1890                   MNW =           0.1283

           TOTAL OUT =       12163.2461             TOTAL OUT =           0.2567

            IN - OUT =           3.5310              IN - OUT =       6.3831E-05

 PERCENT DISCREPANCY =           0.03     PERCENT DISCREPANCY =           0.02






          TIME SUMMARY AT END OF TIME STEP  22 IN STRESS PERIOD    1
                    SECONDS     MINUTES      HOURS       DAYS        YEARS
                    -----------------------------------------------------------
   TIME STEP LENGTH  4640.0      77.334      1.2889     5.37043E-02 1.47034E-04
 STRESS PERIOD TIME  44770.      746.17      12.436     0.51818     1.41869E-03
         TOTAL TIME  44770.      746.17      12.436     0.51818     1.41869E-03
1
 
 SOLVING FOR HEAD 
     3 CALLS TO PCG ROUTINE FOR TIME STEP  23 IN STRESS PERIOD    1
    15 TOTAL ITERATIONS

 HEAD/DRAWDOWN PRINTOUT FLAG = 0     TOTAL BUDGET PRINTOUT FLAG = 1
 CELL-BY-CELL FLOW TERM FLAG = 0
 REUSING PREVIOUS VALUES OF IOFLG

 SAVING SATURATED THICKNESS AND FLOW TERMS ON UNIT  333 FOR MT3DMS
 BY THE LINK-MT3DMS PACKAGE V6.3 AT TIME STEP   23, STRESS PERIOD    1

1
  VOLUMETRIC BUDGET FOR ENTIRE MODEL AT END OF TIME STEP 23 IN STRESS PERIOD   1
  ------------------------------------------------------------------------------

     CUMULATIVE VOLUMES      L**3       RATES FOR THIS TIME STEP      L**3/T
     ------------------                 ------------------------

           IN:                                      IN:
           ---                                      ---
             STORAGE =        6721.4087               STORAGE =           0.1262
       CONSTANT HEAD =          16.8274         CONSTANT HEAD =       1.4900E-03
                 MNW =        6731.1143                   MNW =           0.1275

            TOTAL IN =       13469.3506              TOTAL IN =           0.2552

          OUT:                                     OUT:
          ----                                     ----
             STORAGE =        6734.3623               STORAGE =           0.1276
       CONSTANT HEAD =       3.8452E-02         CONSTANT HEAD =       1.6310E-07
                 MNW =        6731.1143                   MNW =           0.1275

           TOTAL OUT =       13465.5146             TOTAL OUT =           0.2551

            IN - OUT =           3.8354              IN - OUT =       5.9628E-05

 PERCENT DISCREPANCY =           0.03     PERCENT DISCREPANCY =           0.02






          TIME SUMMARY AT END OF TIME STEP  23 IN STRESS PERIOD    1
                    SECONDS     MINUTES      HOURS       DAYS        YEARS
                    -----------------------------------------------------------
   TIME STEP LENGTH  5104.1      85.068      1.4178     5.90747E-02 1.61738E-04
 STRESS PERIOD TIME  49874.      831.24      13.854     0.57725     1.58043E-03
         TOTAL TIME  49874.      831.24      13.854     0.57725     1.58043E-03
1
 
 SOLVING FOR HEAD 
     3 CALLS TO PCG ROUTINE FOR TIME STEP  24 IN STRESS PERIOD    1
    15 TOTAL ITERATIONS

 HEAD/DRAWDOWN PRINTOUT FLAG = 0     TOTAL BUDGET PRINTOUT FLAG = 1
 CELL-BY-CELL FLOW TERM FLAG = 0
 REUSING PREVIOUS VALUES OF IOFLG

 SAVING SATURATED THICKNESS AND FLOW TERMS ON UNIT  333 FOR MT3DMS
 BY THE LINK-MT3DMS PACKAGE V6.3 AT TIME STEP   24, STRESS PERIOD    1

1
  VOLUMETRIC BUDGET FOR ENTIRE MODEL AT END OF TIME STEP 24 IN STRESS PERIOD   1
  ------------------------------------------------------------------------------

     CUMULATIVE VOLUMES      L**3       RATES FOR THIS TIME STEP      L**3/T
     ------------------                 ------------------------

           IN:                                      IN:
           ---                                      ---
             STORAGE =        7421.2520               STORAGE =           0.1247
       CONSTANT HEAD =          29.6415         CONSTANT HEAD =       2.2823E-03
                 MNW =        7442.9570                   MNW =           0.1268

            TOTAL IN =       14893.8506              TOTAL IN =           0.2537

          OUT:                                     OUT:
          ----                                     ----
             STORAGE =        7446.6714               STORAGE =           0.1269
       CONSTANT HEAD =       4.0581E-02         CONSTANT HEAD =       3.7919E-07
                 MNW =        7442.9570                   MNW =           0.1268

           TOTAL OUT =       14889.6689             TOTAL OUT =           0.2537

            IN - OUT =           4.1815              IN - OUT =       6.1691E-05

 PERCENT DISCREPANCY =           0.03     PERCENT DISCREPANCY =           0.02






          TIME SUMMARY AT END OF TIME STEP  24 IN STRESS PERIOD    1
                    SECONDS     MINUTES      HOURS       DAYS        YEARS
                    -----------------------------------------------------------
   TIME STEP LENGTH  5614.5      93.574      1.5596     6.49822E-02 1.77911E-04
 STRESS PERIOD TIME  55489.      924.82      15.414     0.64223     1.75834E-03
         TOTAL TIME  55489.      924.82      15.414     0.64223     1.75834E-03
1
 
 SOLVING FOR HEAD 
     3 CALLS TO PCG ROUTINE FOR TIME STEP  25 IN STRESS PERIOD    1
    15 TOTAL ITERATIONS

 HEAD/DRAWDOWN PRINTOUT FLAG = 0     TOTAL BUDGET PRINTOUT FLAG = 1
 CELL-BY-CELL FLOW TERM FLAG = 0
 REUSING PREVIOUS VALUES OF IOFLG

 SAVING SATURATED THICKNESS AND FLOW TERMS ON UNIT  333 FOR MT3DMS
 BY THE LINK-MT3DMS PACKAGE V6.3 AT TIME STEP   25, STRESS PERIOD    1

1
  VOLUMETRIC BUDGET FOR ENTIRE MODEL AT END OF TIME STEP 25 IN STRESS PERIOD   1
  ------------------------------------------------------------------------------

     CUMULATIVE VOLUMES      L**3       RATES FOR THIS TIME STEP      L**3/T
     ------------------                 ------------------------

           IN:                                      IN:
           ---                                      ---
             STORAGE =        8179.8008               STORAGE =           0.1228
       CONSTANT HEAD =          50.5089         CONSTANT HEAD =       3.3788E-03
                 MNW =        8221.4941                   MNW =           0.1261

            TOTAL IN =       16451.8047              TOTAL IN =           0.2523

          OUT:                                     OUT:
          ----                                     ----
             STORAGE =        8225.7188               STORAGE =           0.1261
       CONSTANT HEAD =       4.5961E-02         CONSTANT HEAD =       8.7111E-07
                 MNW =        8221.4941                   MNW =           0.1261

           TOTAL OUT =       16447.2598             TOTAL OUT =           0.2522

            IN - OUT =           4.5450              IN - OUT =       5.8828E-05

 PERCENT DISCREPANCY =           0.03     PERCENT DISCREPANCY =           0.02






          TIME SUMMARY AT END OF TIME STEP  25 IN STRESS PERIOD    1
                    SECONDS     MINUTES      HOURS       DAYS        YEARS
                    -----------------------------------------------------------
   TIME STEP LENGTH  6175.9      102.93      1.7155     7.14804E-02 1.95703E-04
 STRESS PERIOD TIME  61665.      1027.7      17.129     0.71371     1.95404E-03
         TOTAL TIME  61665.      1027.7      17.129     0.71371     1.95404E-03
1
 
 SOLVING FOR HEAD 
     3 CALLS TO PCG ROUTINE FOR TIME STEP  26 IN STRESS PERIOD    1
    15 TOTAL ITERATIONS

 HEAD/DRAWDOWN PRINTOUT FLAG = 0     TOTAL BUDGET PRINTOUT FLAG = 1
 CELL-BY-CELL FLOW TERM FLAG = 0
 REUSING PREVIOUS VALUES OF IOFLG

 SAVING SATURATED THICKNESS AND FLOW TERMS ON UNIT  333 FOR MT3DMS
 BY THE LINK-MT3DMS PACKAGE V6.3 AT TIME STEP   26, STRESS PERIOD    1

1
  VOLUMETRIC BUDGET FOR ENTIRE MODEL AT END OF TIME STEP 26 IN STRESS PERIOD   1
  ------------------------------------------------------------------------------

     CUMULATIVE VOLUMES      L**3       RATES FOR THIS TIME STEP      L**3/T
     ------------------                 ------------------------

           IN:                                      IN:
           ---                                      ---
             STORAGE =        8999.4287               STORAGE =           0.1206
       CONSTANT HEAD =          83.4101         CONSTANT HEAD =       4.8430E-03
                 MNW =        9073.0537                   MNW =           0.1253

            TOTAL IN =       18155.8926              TOTAL IN =           0.2508

          OUT:                                     OUT:
          ----                                     ----
             STORAGE =        9077.8291               STORAGE =           0.1254
       CONSTANT HEAD =       5.9596E-02         CONSTANT HEAD =       2.0071E-06
                 MNW =        9073.0537                   MNW =           0.1253

           TOTAL OUT =       18150.9434             TOTAL OUT =           0.2508

            IN - OUT =           4.9501              IN - OUT =       5.9672E-05

 PERCENT DISCREPANCY =           0.03     PERCENT DISCREPANCY =           0.02






          TIME SUMMARY AT END OF TIME STEP  26 IN STRESS PERIOD    1
                    SECONDS     MINUTES      HOURS       DAYS        YEARS
                    -----------------------------------------------------------
   TIME STEP LENGTH  6793.5      113.22      1.8871     7.86284E-02 2.15273E-04
 STRESS PERIOD TIME  68458.      1141.0      19.016     0.79234     2.16931E-03
         TOTAL TIME  68458.      1141.0      19.016     0.79234     2.16931E-03
1
 
 SOLVING FOR HEAD 
     4 CALLS TO PCG ROUTINE FOR TIME STEP  27 IN STRESS PERIOD    1
    14 TOTAL ITERATIONS

 HEAD/DRAWDOWN PRINTOUT FLAG = 0     TOTAL BUDGET PRINTOUT FLAG = 1
 CELL-BY-CELL FLOW TERM FLAG = 0
 REUSING PREVIOUS VALUES OF IOFLG

 SAVING SATURATED THICKNESS AND FLOW TERMS ON UNIT  333 FOR MT3DMS
 BY THE LINK-MT3DMS PACKAGE V6.3 AT TIME STEP   27, STRESS PERIOD    1

1
  VOLUMETRIC BUDGET FOR ENTIRE MODEL AT END OF TIME STEP 27 IN STRESS PERIOD   1
  ------------------------------------------------------------------------------

     CUMULATIVE VOLUMES      L**3       RATES FOR THIS TIME STEP      L**3/T
     ------------------                 ------------------------

           IN:                                      IN:
           ---                                      ---
             STORAGE =        9881.6768               STORAGE =           0.1181
       CONSTANT HEAD =         133.7514         CONSTANT HEAD =       6.7366E-03
                 MNW =       10004.3672                   MNW =           0.1246

            TOTAL IN =       20019.7949              TOTAL IN =           0.2494

          OUT:                                     OUT:
          ----                                     ----
             STORAGE =       10009.9229               STORAGE =           0.1247
       CONSTANT HEAD =       9.2987E-02         CONSTANT HEAD =       4.4684E-06
                 MNW =       10004.3672                   MNW =           0.1246

           TOTAL OUT =       20014.3828             TOTAL OUT =           0.2494

            IN - OUT =           5.4123              IN - OUT =       6.1879E-05

 PERCENT DISCREPANCY =           0.03     PERCENT DISCREPANCY =           0.02






          TIME SUMMARY AT END OF TIME STEP  27 IN STRESS PERIOD    1
                    SECONDS     MINUTES      HOURS       DAYS        YEARS
                    -----------------------------------------------------------
   TIME STEP LENGTH  7472.8      124.55      2.0758     8.64912E-02 2.36800E-04
 STRESS PERIOD TIME  75931.      1265.5      21.092     0.87883     2.40611E-03
         TOTAL TIME  75931.      1265.5      21.092     0.87883     2.40611E-03
1
 
 SOLVING FOR HEAD 
     3 CALLS TO PCG ROUTINE FOR TIME STEP  28 IN STRESS PERIOD    1
    16 TOTAL ITERATIONS

 HEAD/DRAWDOWN PRINTOUT FLAG = 0     TOTAL BUDGET PRINTOUT FLAG = 1
 CELL-BY-CELL FLOW TERM FLAG = 0
 REUSING PREVIOUS VALUES OF IOFLG

 SAVING SATURATED THICKNESS AND FLOW TERMS ON UNIT  333 FOR MT3DMS
 BY THE LINK-MT3DMS PACKAGE V6.3 AT TIME STEP   28, STRESS PERIOD    1

1
  VOLUMETRIC BUDGET FOR ENTIRE MODEL AT END OF TIME STEP 28 IN STRESS PERIOD   1
  ------------------------------------------------------------------------------

     CUMULATIVE VOLUMES      L**3       RATES FOR THIS TIME STEP      L**3/T
     ------------------                 ------------------------

           IN:                                      IN:
           ---                                      ---
             STORAGE =       10826.8457               STORAGE =           0.1150
       CONSTANT HEAD =         208.6658         CONSTANT HEAD =       9.1135E-03
                 MNW =       11023.4023                   MNW =           0.1240

            TOTAL IN =       22058.9141              TOTAL IN =           0.2481

          OUT:                                     OUT:
          ----                                     ----
             STORAGE =       11029.5283               STORAGE =           0.1240
       CONSTANT HEAD =           0.1728         CONSTANT HEAD =       9.7126E-06
                 MNW =       11023.4023                   MNW =           0.1240

           TOTAL OUT =       22053.1035             TOTAL OUT =           0.2480

            IN - OUT =           5.8103              IN - OUT =       4.8437E-05

 PERCENT DISCREPANCY =           0.03     PERCENT DISCREPANCY =           0.02






          TIME SUMMARY AT END OF TIME STEP  28 IN STRESS PERIOD    1
                    SECONDS     MINUTES      HOURS       DAYS        YEARS
                    -----------------------------------------------------------
   TIME STEP LENGTH  8220.1      137.00      2.2834     9.51404E-02 2.60480E-04
 STRESS PERIOD TIME  84151.      1402.5      23.375     0.97397     2.66659E-03
         TOTAL TIME  84151.      1402.5      23.375     0.97397     2.66659E-03
1
 
 SOLVING FOR HEAD 
     3 CALLS TO PCG ROUTINE FOR TIME STEP  29 IN STRESS PERIOD    1
    15 TOTAL ITERATIONS

 HEAD/DRAWDOWN PRINTOUT FLAG = 0     TOTAL BUDGET PRINTOUT FLAG = 1
 CELL-BY-CELL FLOW TERM FLAG = 0
 REUSING PREVIOUS VALUES OF IOFLG

 SAVING SATURATED THICKNESS AND FLOW TERMS ON UNIT  333 FOR MT3DMS
 BY THE LINK-MT3DMS PACKAGE V6.3 AT TIME STEP   29, STRESS PERIOD    1

1
  VOLUMETRIC BUDGET FOR ENTIRE MODEL AT END OF TIME STEP 29 IN STRESS PERIOD   1
  ------------------------------------------------------------------------------

     CUMULATIVE VOLUMES      L**3       RATES FOR THIS TIME STEP      L**3/T
     ------------------                 ------------------------

           IN:                                      IN:
           ---                                      ---
             STORAGE =       11834.3809               STORAGE =           0.1114
       CONSTANT HEAD =         317.2886         CONSTANT HEAD =       1.2013E-02
                 MNW =       12138.2773                   MNW =           0.1233

            TOTAL IN =       24289.9473              TOTAL IN =           0.2467

          OUT:                                     OUT:
          ----                                     ----
             STORAGE =       12144.9893               STORAGE =           0.1234
       CONSTANT HEAD =           0.3529         CONSTANT HEAD =       1.9919E-05
                 MNW =       12138.2773                   MNW =           0.1233

           TOTAL OUT =       24283.6191             TOTAL OUT =           0.2467

            IN - OUT =           6.3273              IN - OUT =       5.7193E-05

 PERCENT DISCREPANCY =           0.03     PERCENT DISCREPANCY =           0.02






          TIME SUMMARY AT END OF TIME STEP  29 IN STRESS PERIOD    1
                    SECONDS     MINUTES      HOURS       DAYS        YEARS
                    -----------------------------------------------------------
   TIME STEP LENGTH  9042.1      150.70      2.5117     0.10465     2.86528E-04
 STRESS PERIOD TIME  93193.      1553.2      25.887      1.0786     2.95312E-03
         TOTAL TIME  93193.      1553.2      25.887      1.0786     2.95312E-03
1
 
 SOLVING FOR HEAD 
     4 CALLS TO PCG ROUTINE FOR TIME STEP  30 IN STRESS PERIOD    1
    14 TOTAL ITERATIONS

 HEAD/DRAWDOWN PRINTOUT FLAG = 0     TOTAL BUDGET PRINTOUT FLAG = 1
 CELL-BY-CELL FLOW TERM FLAG = 0
 REUSING PREVIOUS VALUES OF IOFLG

 SAVING SATURATED THICKNESS AND FLOW TERMS ON UNIT  333 FOR MT3DMS
 BY THE LINK-MT3DMS PACKAGE V6.3 AT TIME STEP   30, STRESS PERIOD    1

1
  VOLUMETRIC BUDGET FOR ENTIRE MODEL AT END OF TIME STEP 30 IN STRESS PERIOD   1
  ------------------------------------------------------------------------------

     CUMULATIVE VOLUMES      L**3       RATES FOR THIS TIME STEP      L**3/T
     ------------------                 ------------------------

           IN:                                      IN:
           ---                                      ---
             STORAGE =       12901.8555               STORAGE =           0.1073
       CONSTANT HEAD =         471.0069         CONSTANT HEAD =       1.5455E-02
                 MNW =       13357.8672                   MNW =           0.1226

            TOTAL IN =       26730.7305              TOTAL IN =           0.2454

          OUT:                                     OUT:
          ----                                     ----
             STORAGE =       13365.2207               STORAGE =           0.1227
       CONSTANT HEAD =           0.7397         CONSTANT HEAD =       3.8890E-05
                 MNW =       13357.8672                   MNW =           0.1226

           TOTAL OUT =       26723.8281             TOTAL OUT =           0.2453

            IN - OUT =           6.9019              IN - OUT =       5.7727E-05

 PERCENT DISCREPANCY =           0.03     PERCENT DISCREPANCY =           0.02






          TIME SUMMARY AT END OF TIME STEP  30 IN STRESS PERIOD    1
                    SECONDS     MINUTES      HOURS       DAYS        YEARS
                    -----------------------------------------------------------
   TIME STEP LENGTH  9946.4      165.77      2.7629     0.11512     3.15181E-04
 STRESS PERIOD TIME 1.03140E+05  1719.0      28.650      1.1937     3.26830E-03
         TOTAL TIME 1.03140E+05  1719.0      28.650      1.1937     3.26830E-03
1
 
 SOLVING FOR HEAD 
     3 CALLS TO PCG ROUTINE FOR TIME STEP  31 IN STRESS PERIOD    1
    15 TOTAL ITERATIONS

 HEAD/DRAWDOWN PRINTOUT FLAG = 0     TOTAL BUDGET PRINTOUT FLAG = 1
 CELL-BY-CELL FLOW TERM FLAG = 0
 REUSING PREVIOUS VALUES OF IOFLG

 SAVING SATURATED THICKNESS AND FLOW TERMS ON UNIT  333 FOR MT3DMS
 BY THE LINK-MT3DMS PACKAGE V6.3 AT TIME STEP   31, STRESS PERIOD    1

1
  VOLUMETRIC BUDGET FOR ENTIRE MODEL AT END OF TIME STEP 31 IN STRESS PERIOD   1
  ------------------------------------------------------------------------------

     CUMULATIVE VOLUMES      L**3       RATES FOR THIS TIME STEP      L**3/T
     ------------------                 ------------------------

           IN:                                      IN:
           ---                                      ---
             STORAGE =       14025.7031               STORAGE =           0.1027
       CONSTANT HEAD =         683.6891         CONSTANT HEAD =       1.9439E-02
                 MNW =       14692.5010                   MNW =           0.1220

            TOTAL IN =       29401.8926              TOTAL IN =           0.2441

          OUT:                                     OUT:
          ----                                     ----
             STORAGE =       14700.3916               STORAGE =           0.1220
       CONSTANT HEAD =           1.5390         CONSTANT HEAD =       7.3055E-05
                 MNW =       14692.5010                   MNW =           0.1220

           TOTAL OUT =       29394.4316             TOTAL OUT =           0.2441

            IN - OUT =           7.4616              IN - OUT =       5.1193E-05

 PERCENT DISCREPANCY =           0.03     PERCENT DISCREPANCY =           0.02






          TIME SUMMARY AT END OF TIME STEP  31 IN STRESS PERIOD    1
                    SECONDS     MINUTES      HOURS       DAYS        YEARS
                    -----------------------------------------------------------
   TIME STEP LENGTH  10941.      182.35      3.0392     0.12663     3.46699E-04
 STRESS PERIOD TIME 1.14081E+05  1901.3      31.689      1.3204     3.61500E-03
         TOTAL TIME 1.14081E+05  1901.3      31.689      1.3204     3.61500E-03
1
 
 SOLVING FOR HEAD 
     3 CALLS TO PCG ROUTINE FOR TIME STEP  32 IN STRESS PERIOD    1
    15 TOTAL ITERATIONS

 HEAD/DRAWDOWN PRINTOUT FLAG = 0     TOTAL BUDGET PRINTOUT FLAG = 1
 CELL-BY-CELL FLOW TERM FLAG = 0
 REUSING PREVIOUS VALUES OF IOFLG

 SAVING SATURATED THICKNESS AND FLOW TERMS ON UNIT  333 FOR MT3DMS
 BY THE LINK-MT3DMS PACKAGE V6.3 AT TIME STEP   32, STRESS PERIOD    1

1
  VOLUMETRIC BUDGET FOR ENTIRE MODEL AT END OF TIME STEP 32 IN STRESS PERIOD   1
  ------------------------------------------------------------------------------

     CUMULATIVE VOLUMES      L**3       RATES FOR THIS TIME STEP      L**3/T
     ------------------                 ------------------------

           IN:                                      IN:
           ---                                      ---
             STORAGE =       15199.6924               STORAGE =       9.7547E-02
       CONSTANT HEAD =         971.8665         CONSTANT HEAD =       2.3945E-02
                 MNW =       16152.9746                   MNW =           0.1214

            TOTAL IN =       32324.5332              TOTAL IN =           0.2428

          OUT:                                     OUT:
          ----                                     ----
             STORAGE =       16160.3320               STORAGE =           0.1213
       CONSTANT HEAD =           3.1320         CONSTANT HEAD =       1.3236E-04
                 MNW =       16152.9746                   MNW =           0.1214

           TOTAL OUT =       32316.4395             TOTAL OUT =           0.2428

            IN - OUT =           8.0948              IN - OUT =       5.2646E-05

 PERCENT DISCREPANCY =           0.03     PERCENT DISCREPANCY =           0.02






          TIME SUMMARY AT END OF TIME STEP  32 IN STRESS PERIOD    1
                    SECONDS     MINUTES      HOURS       DAYS        YEARS
                    -----------------------------------------------------------
   TIME STEP LENGTH  12035.      200.58      3.3431     0.13930     3.81369E-04
 STRESS PERIOD TIME 1.26116E+05  2101.9      35.032      1.4597     3.99637E-03
         TOTAL TIME 1.26116E+05  2101.9      35.032      1.4597     3.99637E-03
1
 
 SOLVING FOR HEAD 
     4 CALLS TO PCG ROUTINE FOR TIME STEP  33 IN STRESS PERIOD    1
    14 TOTAL ITERATIONS

 HEAD/DRAWDOWN PRINTOUT FLAG = 0     TOTAL BUDGET PRINTOUT FLAG = 1
 CELL-BY-CELL FLOW TERM FLAG = 0
 REUSING PREVIOUS VALUES OF IOFLG

 SAVING SATURATED THICKNESS AND FLOW TERMS ON UNIT  333 FOR MT3DMS
 BY THE LINK-MT3DMS PACKAGE V6.3 AT TIME STEP   33, STRESS PERIOD    1

1
  VOLUMETRIC BUDGET FOR ENTIRE MODEL AT END OF TIME STEP 33 IN STRESS PERIOD   1
  ------------------------------------------------------------------------------

     CUMULATIVE VOLUMES      L**3       RATES FOR THIS TIME STEP      L**3/T
     ------------------                 ------------------------

           IN:                                      IN:
           ---                                      ---
             STORAGE =       16416.7656               STORAGE =       9.1934E-02
       CONSTANT HEAD =        1354.9114         CONSTANT HEAD =       2.8934E-02
                 MNW =       17750.8555                   MNW =           0.1207

            TOTAL IN =       35522.5312              TOTAL IN =           0.2416

          OUT:                                     OUT:
          ----                                     ----
             STORAGE =       17756.5879               STORAGE =           0.1206
       CONSTANT HEAD =           6.1818         CONSTANT HEAD =       2.3037E-04
                 MNW =       17750.8555                   MNW =           0.1207

           TOTAL OUT =       35513.6250             TOTAL OUT =           0.2415

            IN - OUT =           8.9073              IN - OUT =       6.1306E-05

 PERCENT DISCREPANCY =           0.03     PERCENT DISCREPANCY =           0.03






          TIME SUMMARY AT END OF TIME STEP  33 IN STRESS PERIOD    1
                    SECONDS     MINUTES      HOURS       DAYS        YEARS
                    -----------------------------------------------------------
   TIME STEP LENGTH  13239.      220.64      3.6774     0.15322     4.19506E-04
 STRESS PERIOD TIME 1.39354E+05  2322.6      38.710      1.6129     4.41588E-03
         TOTAL TIME 1.39354E+05  2322.6      38.710      1.6129     4.41588E-03
1
 
 SOLVING FOR HEAD 
     3 CALLS TO PCG ROUTINE FOR TIME STEP  34 IN STRESS PERIOD    1
    16 TOTAL ITERATIONS

 HEAD/DRAWDOWN PRINTOUT FLAG = 0     TOTAL BUDGET PRINTOUT FLAG = 1
 CELL-BY-CELL FLOW TERM FLAG = 0
 REUSING PREVIOUS VALUES OF IOFLG

 SAVING SATURATED THICKNESS AND FLOW TERMS ON UNIT  333 FOR MT3DMS
 BY THE LINK-MT3DMS PACKAGE V6.3 AT TIME STEP   34, STRESS PERIOD    1

1
  VOLUMETRIC BUDGET FOR ENTIRE MODEL AT END OF TIME STEP 34 IN STRESS PERIOD   1
  ------------------------------------------------------------------------------

     CUMULATIVE VOLUMES      L**3       RATES FOR THIS TIME STEP      L**3/T
     ------------------                 ------------------------

           IN:                                      IN:
           ---                                      ---
             STORAGE =       17667.6289               STORAGE =       8.5896E-02
       CONSTANT HEAD =        1854.8768         CONSTANT HEAD =       3.4332E-02
                 MNW =       19499.8828                   MNW =           0.1201

            TOTAL IN =       39022.3867              TOTAL IN =           0.2403

          OUT:                                     OUT:
          ----                                     ----
             STORAGE =       19501.1367               STORAGE =           0.1198
       CONSTANT HEAD =          11.8408         CONSTANT HEAD =       3.8860E-04
                 MNW =       19499.8828                   MNW =           0.1201

           TOTAL OUT =       39012.8594             TOTAL OUT =           0.2403

            IN - OUT =           9.5282              IN - OUT =       4.2645E-05

 PERCENT DISCREPANCY =           0.02     PERCENT DISCREPANCY =           0.02






          TIME SUMMARY AT END OF TIME STEP  34 IN STRESS PERIOD    1
                    SECONDS     MINUTES      HOURS       DAYS        YEARS
                    -----------------------------------------------------------
   TIME STEP LENGTH  14562.      242.71      4.0451     0.16855     4.61457E-04
 STRESS PERIOD TIME 1.53917E+05  2565.3      42.755      1.7814     4.87733E-03
         TOTAL TIME 1.53917E+05  2565.3      42.755      1.7814     4.87733E-03
1
 
 SOLVING FOR HEAD 
     3 CALLS TO PCG ROUTINE FOR TIME STEP  35 IN STRESS PERIOD    1
    15 TOTAL ITERATIONS

 HEAD/DRAWDOWN PRINTOUT FLAG = 0     TOTAL BUDGET PRINTOUT FLAG = 1
 CELL-BY-CELL FLOW TERM FLAG = 0
 REUSING PREVIOUS VALUES OF IOFLG

 SAVING SATURATED THICKNESS AND FLOW TERMS ON UNIT  333 FOR MT3DMS
 BY THE LINK-MT3DMS PACKAGE V6.3 AT TIME STEP   35, STRESS PERIOD    1

1
  VOLUMETRIC BUDGET FOR ENTIRE MODEL AT END OF TIME STEP 35 IN STRESS PERIOD   1
  ------------------------------------------------------------------------------

     CUMULATIVE VOLUMES      L**3       RATES FOR THIS TIME STEP      L**3/T
     ------------------                 ------------------------

           IN:                                      IN:
           ---                                      ---
             STORAGE =       18942.1836               STORAGE =       7.9567E-02
       CONSTANT HEAD =        2496.7563         CONSTANT HEAD =       4.0071E-02
                 MNW =       21414.0723                   MNW =           0.1195

            TOTAL IN =       42853.0117              TOTAL IN =           0.2391

          OUT:                                     OUT:
          ----                                     ----
             STORAGE =       21406.6270               STORAGE =           0.1190
       CONSTANT HEAD =          21.9823         CONSTANT HEAD =       6.3311E-04
                 MNW =       21414.0723                   MNW =           0.1195

           TOTAL OUT =       42842.6797             TOTAL OUT =           0.2391

            IN - OUT =          10.3307              IN - OUT =       5.0137E-05

 PERCENT DISCREPANCY =           0.02     PERCENT DISCREPANCY =           0.02






          TIME SUMMARY AT END OF TIME STEP  35 IN STRESS PERIOD    1
                    SECONDS     MINUTES      HOURS       DAYS        YEARS
                    -----------------------------------------------------------
   TIME STEP LENGTH  16019.      266.98      4.4496     0.18540     5.07602E-04
 STRESS PERIOD TIME 1.69936E+05  2832.3      47.204      1.9668     5.38494E-03
         TOTAL TIME 1.69936E+05  2832.3      47.204      1.9668     5.38494E-03
1
 
 SOLVING FOR HEAD 
     3 CALLS TO PCG ROUTINE FOR TIME STEP  36 IN STRESS PERIOD    1
    13 TOTAL ITERATIONS

 HEAD/DRAWDOWN PRINTOUT FLAG = 0     TOTAL BUDGET PRINTOUT FLAG = 1
 CELL-BY-CELL FLOW TERM FLAG = 0
 REUSING PREVIOUS VALUES OF IOFLG

 SAVING SATURATED THICKNESS AND FLOW TERMS ON UNIT  333 FOR MT3DMS
 BY THE LINK-MT3DMS PACKAGE V6.3 AT TIME STEP   36, STRESS PERIOD    1

1
  VOLUMETRIC BUDGET FOR ENTIRE MODEL AT END OF TIME STEP 36 IN STRESS PERIOD   1
  ------------------------------------------------------------------------------

     CUMULATIVE VOLUMES      L**3       RATES FOR THIS TIME STEP      L**3/T
     ------------------                 ------------------------

           IN:                                      IN:
           ---                                      ---
             STORAGE =       20228.2715               STORAGE =       7.2988E-02
       CONSTANT HEAD =        3308.4578         CONSTANT HEAD =       4.6066E-02
                 MNW =       23509.1250                   MNW =           0.1189

            TOTAL IN =       47045.8555              TOTAL IN =           0.2380

          OUT:                                     OUT:
          ----                                     ----
             STORAGE =       23485.6953               STORAGE =           0.1180
       CONSTANT HEAD =          39.5577         CONSTANT HEAD =       9.9743E-04
                 MNW =       23509.1250                   MNW =           0.1189

           TOTAL OUT =       47034.3789             TOTAL OUT =           0.2379

            IN - OUT =          11.4763              IN - OUT =       6.5014E-05

 PERCENT DISCREPANCY =           0.02     PERCENT DISCREPANCY =           0.03






          TIME SUMMARY AT END OF TIME STEP  36 IN STRESS PERIOD    1
                    SECONDS     MINUTES      HOURS       DAYS        YEARS
                    -----------------------------------------------------------
   TIME STEP LENGTH  17621.      293.68      4.8946     0.20394     5.58362E-04
 STRESS PERIOD TIME 1.87556E+05  3125.9      52.099      2.1708     5.94330E-03
         TOTAL TIME 1.87556E+05  3125.9      52.099      2.1708     5.94330E-03
1
 
 SOLVING FOR HEAD 
     3 CALLS TO PCG ROUTINE FOR TIME STEP  37 IN STRESS PERIOD    1
    15 TOTAL ITERATIONS

 HEAD/DRAWDOWN PRINTOUT FLAG = 0     TOTAL BUDGET PRINTOUT FLAG = 1
 CELL-BY-CELL FLOW TERM FLAG = 0
 REUSING PREVIOUS VALUES OF IOFLG

 SAVING SATURATED THICKNESS AND FLOW TERMS ON UNIT  333 FOR MT3DMS
 BY THE LINK-MT3DMS PACKAGE V6.3 AT TIME STEP   37, STRESS PERIOD    1

1
  VOLUMETRIC BUDGET FOR ENTIRE MODEL AT END OF TIME STEP 37 IN STRESS PERIOD   1
  ------------------------------------------------------------------------------

     CUMULATIVE VOLUMES      L**3       RATES FOR THIS TIME STEP      L**3/T
     ------------------                 ------------------------

           IN:                                      IN:
           ---                                      ---
             STORAGE =       21512.2441               STORAGE =       6.6243E-02
       CONSTANT HEAD =        4320.1401         CONSTANT HEAD =       5.2195E-02
                 MNW =       25802.2578                   MNW =           0.1183

            TOTAL IN =       51634.6406              TOTAL IN =           0.2367

          OUT:                                     OUT:
          ----                                     ----
             STORAGE =       25750.9160               STORAGE =           0.1169
       CONSTANT HEAD =          69.1242         CONSTANT HEAD =       1.5254E-03
                 MNW =       25802.2578                   MNW =           0.1183

           TOTAL OUT =       51622.2969             TOTAL OUT =           0.2367

            IN - OUT =          12.3441              IN - OUT =       4.4770E-05

 PERCENT DISCREPANCY =           0.02     PERCENT DISCREPANCY =           0.02






          TIME SUMMARY AT END OF TIME STEP  37 IN STRESS PERIOD    1
                    SECONDS     MINUTES      HOURS       DAYS        YEARS
                    -----------------------------------------------------------
   TIME STEP LENGTH  19383.      323.04      5.3841     0.22434     6.14199E-04
 STRESS PERIOD TIME 2.06939E+05  3449.0      57.483      2.3951     6.55750E-03
         TOTAL TIME 2.06939E+05  3449.0      57.483      2.3951     6.55750E-03
1
 
 SOLVING FOR HEAD 
     3 CALLS TO PCG ROUTINE FOR TIME STEP  38 IN STRESS PERIOD    1
    14 TOTAL ITERATIONS

 HEAD/DRAWDOWN PRINTOUT FLAG = 0     TOTAL BUDGET PRINTOUT FLAG = 1
 CELL-BY-CELL FLOW TERM FLAG = 0
 REUSING PREVIOUS VALUES OF IOFLG

 SAVING SATURATED THICKNESS AND FLOW TERMS ON UNIT  333 FOR MT3DMS
 BY THE LINK-MT3DMS PACKAGE V6.3 AT TIME STEP   38, STRESS PERIOD    1

1
  VOLUMETRIC BUDGET FOR ENTIRE MODEL AT END OF TIME STEP 38 IN STRESS PERIOD   1
  ------------------------------------------------------------------------------

     CUMULATIVE VOLUMES      L**3       RATES FOR THIS TIME STEP      L**3/T
     ------------------                 ------------------------

           IN:                                      IN:
           ---                                      ---
             STORAGE =       22781.1055               STORAGE =       5.9513E-02
       CONSTANT HEAD =        5564.7134         CONSTANT HEAD =       5.8373E-02
                 MNW =       28312.2461                   MNW =           0.1177

            TOTAL IN =       56658.0664              TOTAL IN =           0.2356

          OUT:                                     OUT:
          ----                                     ----
             STORAGE =       28215.2148               STORAGE =           0.1156
       CONSTANT HEAD =         117.3928         CONSTANT HEAD =       2.2639E-03
                 MNW =       28312.2461                   MNW =           0.1177

           TOTAL OUT =       56644.8555             TOTAL OUT =           0.2356

            IN - OUT =          13.2112              IN - OUT =       4.0653E-05

 PERCENT DISCREPANCY =           0.02     PERCENT DISCREPANCY =           0.02






          TIME SUMMARY AT END OF TIME STEP  38 IN STRESS PERIOD    1
                    SECONDS     MINUTES      HOURS       DAYS        YEARS
                    -----------------------------------------------------------
   TIME STEP LENGTH  21321.      355.35      5.9225     0.24677     6.75619E-04
 STRESS PERIOD TIME 2.28260E+05  3804.3      63.405      2.6419     7.23312E-03
         TOTAL TIME 2.28260E+05  3804.3      63.405      2.6419     7.23312E-03
1
 
 SOLVING FOR HEAD 
     3 CALLS TO PCG ROUTINE FOR TIME STEP  39 IN STRESS PERIOD    1
    15 TOTAL ITERATIONS

 HEAD/DRAWDOWN PRINTOUT FLAG = 0     TOTAL BUDGET PRINTOUT FLAG = 1
 CELL-BY-CELL FLOW TERM FLAG = 0
 REUSING PREVIOUS VALUES OF IOFLG

 SAVING SATURATED THICKNESS AND FLOW TERMS ON UNIT  333 FOR MT3DMS
 BY THE LINK-MT3DMS PACKAGE V6.3 AT TIME STEP   39, STRESS PERIOD    1

1
  VOLUMETRIC BUDGET FOR ENTIRE MODEL AT END OF TIME STEP 39 IN STRESS PERIOD   1
  ------------------------------------------------------------------------------

     CUMULATIVE VOLUMES      L**3       RATES FOR THIS TIME STEP      L**3/T
     ------------------                 ------------------------

           IN:                                      IN:
           ---                                      ---
             STORAGE =       24019.2578               STORAGE =       5.2793E-02
       CONSTANT HEAD =        7077.4634         CONSTANT HEAD =       6.4501E-02
                 MNW =       31059.9629                   MNW =           0.1172

            TOTAL IN =       62156.6836              TOTAL IN =           0.2345

          OUT:                                     OUT:
          ----                                     ----
             STORAGE =       30888.4609               STORAGE =           0.1140
       CONSTANT HEAD =         193.9853         CONSTANT HEAD =       3.2658E-03
                 MNW =       31059.9629                   MNW =           0.1172

           TOTAL OUT =       62142.4102             TOTAL OUT =           0.2344

            IN - OUT =          14.2749              IN - OUT =       4.5391E-05

 PERCENT DISCREPANCY =           0.02     PERCENT DISCREPANCY =           0.02






          TIME SUMMARY AT END OF TIME STEP  39 IN STRESS PERIOD    1
                    SECONDS     MINUTES      HOURS       DAYS        YEARS
                    -----------------------------------------------------------
   TIME STEP LENGTH  23453.      390.88      6.5147     0.27145     7.43180E-04
 STRESS PERIOD TIME 2.51713E+05  4195.2      69.920      2.9133     7.97630E-03
         TOTAL TIME 2.51713E+05  4195.2      69.920      2.9133     7.97630E-03
1
 
 SOLVING FOR HEAD 
     4 CALLS TO PCG ROUTINE FOR TIME STEP  40 IN STRESS PERIOD    1
    15 TOTAL ITERATIONS

 HEAD/DRAWDOWN PRINTOUT FLAG = 0     TOTAL BUDGET PRINTOUT FLAG = 1
 CELL-BY-CELL FLOW TERM FLAG = 0
 REUSING PREVIOUS VALUES OF IOFLG

 SAVING SATURATED THICKNESS AND FLOW TERMS ON UNIT  333 FOR MT3DMS
 BY THE LINK-MT3DMS PACKAGE V6.3 AT TIME STEP   40, STRESS PERIOD    1

1
  VOLUMETRIC BUDGET FOR ENTIRE MODEL AT END OF TIME STEP 40 IN STRESS PERIOD   1
  ------------------------------------------------------------------------------

     CUMULATIVE VOLUMES      L**3       RATES FOR THIS TIME STEP      L**3/T
     ------------------                 ------------------------

           IN:                                      IN:
           ---                                      ---
             STORAGE =       25211.8047               STORAGE =       4.6226E-02
       CONSTANT HEAD =        8895.8076         CONSTANT HEAD =       7.0483E-02
                 MNW =       34067.3281                   MNW =           0.1166

            TOTAL IN =       68174.9375              TOTAL IN =           0.2333

          OUT:                                     OUT:
          ----                                     ----
             STORAGE =       33779.9883               STORAGE =           0.1121
       CONSTANT HEAD =         312.2502         CONSTANT HEAD =       4.5842E-03
                 MNW =       34067.3281                   MNW =           0.1166

           TOTAL OUT =       68159.5703             TOTAL OUT =           0.2332

            IN - OUT =          15.3739              IN - OUT =       4.2579E-05

 PERCENT DISCREPANCY =           0.02     PERCENT DISCREPANCY =           0.02






          TIME SUMMARY AT END OF TIME STEP  40 IN STRESS PERIOD    1
                    SECONDS     MINUTES      HOURS       DAYS        YEARS
                    -----------------------------------------------------------
   TIME STEP LENGTH  25798.      429.97      7.1662     0.29859     8.17499E-04
 STRESS PERIOD TIME 2.77511E+05  4625.2      77.086      3.2119     8.79379E-03
         TOTAL TIME 2.77511E+05  4625.2      77.086      3.2119     8.79379E-03
1
 
 SOLVING FOR HEAD 
     3 CALLS TO PCG ROUTINE FOR TIME STEP  41 IN STRESS PERIOD    1
    16 TOTAL ITERATIONS

 HEAD/DRAWDOWN PRINTOUT FLAG = 0     TOTAL BUDGET PRINTOUT FLAG = 1
 CELL-BY-CELL FLOW TERM FLAG = 0
 REUSING PREVIOUS VALUES OF IOFLG

 SAVING SATURATED THICKNESS AND FLOW TERMS ON UNIT  333 FOR MT3DMS
 BY THE LINK-MT3DMS PACKAGE V6.3 AT TIME STEP   41, STRESS PERIOD    1

1
  VOLUMETRIC BUDGET FOR ENTIRE MODEL AT END OF TIME STEP 41 IN STRESS PERIOD   1
  ------------------------------------------------------------------------------

     CUMULATIVE VOLUMES      L**3       RATES FOR THIS TIME STEP      L**3/T
     ------------------                 ------------------------

           IN:                                      IN:
           ---                                      ---
             STORAGE =       26345.8828               STORAGE =       3.9963E-02
       CONSTANT HEAD =       11058.3535         CONSTANT HEAD =       7.6205E-02
                 MNW =       37360.6484                   MNW =           0.1161

            TOTAL IN =       74764.8828              TOTAL IN =           0.2322

          OUT:                                     OUT:
          ----                                     ----
             STORAGE =       36897.5898               STORAGE =           0.1099
       CONSTANT HEAD =         490.2759         CONSTANT HEAD =       6.2733E-03
                 MNW =       37360.6484                   MNW =           0.1161

           TOTAL OUT =       74748.5156             TOTAL OUT =           0.2322

            IN - OUT =          16.3705              IN - OUT =       3.5167E-05

 PERCENT DISCREPANCY =           0.02     PERCENT DISCREPANCY =           0.02






          TIME SUMMARY AT END OF TIME STEP  41 IN STRESS PERIOD    1
                    SECONDS     MINUTES      HOURS       DAYS        YEARS
                    -----------------------------------------------------------
   TIME STEP LENGTH  28378.      472.97      7.8828     0.32845     8.99248E-04
 STRESS PERIOD TIME 3.05889E+05  5098.2      84.969      3.5404     9.69304E-03
         TOTAL TIME 3.05889E+05  5098.2      84.969      3.5404     9.69304E-03
1
 
 SOLVING FOR HEAD 
     3 CALLS TO PCG ROUTINE FOR TIME STEP  42 IN STRESS PERIOD    1
    15 TOTAL ITERATIONS

 HEAD/DRAWDOWN PRINTOUT FLAG = 0     TOTAL BUDGET PRINTOUT FLAG = 1
 CELL-BY-CELL FLOW TERM FLAG = 0
 REUSING PREVIOUS VALUES OF IOFLG

 SAVING SATURATED THICKNESS AND FLOW TERMS ON UNIT  333 FOR MT3DMS
 BY THE LINK-MT3DMS PACKAGE V6.3 AT TIME STEP   42, STRESS PERIOD    1

1
  VOLUMETRIC BUDGET FOR ENTIRE MODEL AT END OF TIME STEP 42 IN STRESS PERIOD   1
  ------------------------------------------------------------------------------

     CUMULATIVE VOLUMES      L**3       RATES FOR THIS TIME STEP      L**3/T
     ------------------                 ------------------------

           IN:                                      IN:
           ---                                      ---
             STORAGE =       27408.6309               STORAGE =       3.4045E-02
       CONSTANT HEAD =       13605.7891         CONSTANT HEAD =       8.1607E-02
                 MNW =       40966.5625                   MNW =           0.1155

            TOTAL IN =       81980.9844              TOTAL IN =           0.2312

          OUT:                                     OUT:
          ----                                     ----
             STORAGE =       40244.9102               STORAGE =           0.1072
       CONSTANT HEAD =         751.7916         CONSTANT HEAD =       8.3776E-03
                 MNW =       40966.5625                   MNW =           0.1155

           TOTAL OUT =       81963.2656             TOTAL OUT =           0.2311

            IN - OUT =          17.7181              IN - OUT =       4.3189E-05

 PERCENT DISCREPANCY =           0.02     PERCENT DISCREPANCY =           0.02






          TIME SUMMARY AT END OF TIME STEP  42 IN STRESS PERIOD    1
                    SECONDS     MINUTES      HOURS       DAYS        YEARS
                    -----------------------------------------------------------
   TIME STEP LENGTH  31216.      520.27      8.6711     0.36130     9.89173E-04
 STRESS PERIOD TIME 3.37105E+05  5618.4      93.640      3.9017     1.06822E-02
         TOTAL TIME 3.37105E+05  5618.4      93.640      3.9017     1.06822E-02
1
 
 SOLVING FOR HEAD 
     4 CALLS TO PCG ROUTINE FOR TIME STEP  43 IN STRESS PERIOD    1
    14 TOTAL ITERATIONS

 HEAD/DRAWDOWN PRINTOUT FLAG = 0     TOTAL BUDGET PRINTOUT FLAG = 1
 CELL-BY-CELL FLOW TERM FLAG = 0
 REUSING PREVIOUS VALUES OF IOFLG

 SAVING SATURATED THICKNESS AND FLOW TERMS ON UNIT  333 FOR MT3DMS
 BY THE LINK-MT3DMS PACKAGE V6.3 AT TIME STEP   43, STRESS PERIOD    1

1
  VOLUMETRIC BUDGET FOR ENTIRE MODEL AT END OF TIME STEP 43 IN STRESS PERIOD   1
  ------------------------------------------------------------------------------

     CUMULATIVE VOLUMES      L**3       RATES FOR THIS TIME STEP      L**3/T
     ------------------                 ------------------------

           IN:                                      IN:
           ---                                      ---
             STORAGE =       28387.2246               STORAGE =       2.8499E-02
       CONSTANT HEAD =       16580.2891         CONSTANT HEAD =       8.6625E-02
                 MNW =       44913.9570                   MNW =           0.1150

            TOTAL IN =       89881.4688              TOTAL IN =           0.2301

          OUT:                                     OUT:
          ----                                     ----
             STORAGE =       43821.3008               STORAGE =           0.1042
       CONSTANT HEAD =        1127.2192         CONSTANT HEAD =       1.0933E-02
                 MNW =       44913.9570                   MNW =           0.1150

           TOTAL OUT =       89862.4766             TOTAL OUT =           0.2300

            IN - OUT =          18.9937              IN - OUT =       3.7123E-05

 PERCENT DISCREPANCY =           0.02     PERCENT DISCREPANCY =           0.02






          TIME SUMMARY AT END OF TIME STEP  43 IN STRESS PERIOD    1
                    SECONDS     MINUTES      HOURS       DAYS        YEARS
                    -----------------------------------------------------------
   TIME STEP LENGTH  34338.      572.29      9.5382     0.39743     1.08809E-03
 STRESS PERIOD TIME 3.71443E+05  6190.7      103.18      4.2991     1.17703E-02
         TOTAL TIME 3.71443E+05  6190.7      103.18      4.2991     1.17703E-02
1
 
 SOLVING FOR HEAD 
     3 CALLS TO PCG ROUTINE FOR TIME STEP  44 IN STRESS PERIOD    1
    16 TOTAL ITERATIONS

 HEAD/DRAWDOWN PRINTOUT FLAG = 0     TOTAL BUDGET PRINTOUT FLAG = 1
 CELL-BY-CELL FLOW TERM FLAG = 0
 REUSING PREVIOUS VALUES OF IOFLG

 SAVING SATURATED THICKNESS AND FLOW TERMS ON UNIT  333 FOR MT3DMS
 BY THE LINK-MT3DMS PACKAGE V6.3 AT TIME STEP   44, STRESS PERIOD    1

1
  VOLUMETRIC BUDGET FOR ENTIRE MODEL AT END OF TIME STEP 44 IN STRESS PERIOD   1
  ------------------------------------------------------------------------------

     CUMULATIVE VOLUMES      L**3       RATES FOR THIS TIME STEP      L**3/T
     ------------------                 ------------------------

           IN:                                      IN:
           ---                                      ---
             STORAGE =       29271.7793               STORAGE =       2.3419E-02
       CONSTANT HEAD =       20023.9160         CONSTANT HEAD =       9.1171E-02
                 MNW =       49237.9805                   MNW =           0.1145

            TOTAL IN =       98533.6719              TOTAL IN =           0.2291

          OUT:                                     OUT:
          ----                                     ----
             STORAGE =       47620.8750               STORAGE =           0.1006
       CONSTANT HEAD =        1654.6461         CONSTANT HEAD =       1.3964E-02
                 MNW =       49237.9805                   MNW =           0.1145

           TOTAL OUT =       98513.5000             TOTAL OUT =           0.2290

            IN - OUT =          20.1742              IN - OUT =       3.1282E-05

 PERCENT DISCREPANCY =           0.02     PERCENT DISCREPANCY =           0.01






          TIME SUMMARY AT END OF TIME STEP  44 IN STRESS PERIOD    1
                    SECONDS     MINUTES      HOURS       DAYS        YEARS
                    -----------------------------------------------------------
   TIME STEP LENGTH  37771.      629.52      10.492     0.43717     1.19690E-03
 STRESS PERIOD TIME 4.09214E+05  6820.2      113.67      4.7363     1.29672E-02
         TOTAL TIME 4.09214E+05  6820.2      113.67      4.7363     1.29672E-02
1
 
 SOLVING FOR HEAD 
     3 CALLS TO PCG ROUTINE FOR TIME STEP  45 IN STRESS PERIOD    1
    15 TOTAL ITERATIONS

 HEAD/DRAWDOWN PRINTOUT FLAG = 0     TOTAL BUDGET PRINTOUT FLAG = 1
 CELL-BY-CELL FLOW TERM FLAG = 0
 REUSING PREVIOUS VALUES OF IOFLG

 SAVING SATURATED THICKNESS AND FLOW TERMS ON UNIT  333 FOR MT3DMS
 BY THE LINK-MT3DMS PACKAGE V6.3 AT TIME STEP   45, STRESS PERIOD    1

1
  VOLUMETRIC BUDGET FOR ENTIRE MODEL AT END OF TIME STEP 45 IN STRESS PERIOD   1
  ------------------------------------------------------------------------------

     CUMULATIVE VOLUMES      L**3       RATES FOR THIS TIME STEP      L**3/T
     ------------------                 ------------------------

           IN:                                      IN:
           ---                                      ---
             STORAGE =       30056.1992               STORAGE =       1.8880E-02
       CONSTANT HEAD =       23980.6465         CONSTANT HEAD =       9.5232E-02
                 MNW =       53973.6992                   MNW =           0.1140

            TOTAL IN =      108010.5470              TOTAL IN =           0.2281

          OUT:                                     OUT:
          ----                                     ----
             STORAGE =       51634.3945               STORAGE =       9.6599E-02
       CONSTANT HEAD =        2380.6716         CONSTANT HEAD =       1.7474E-02
                 MNW =       53973.6992                   MNW =           0.1140

           TOTAL OUT =      107988.7660             TOTAL OUT =           0.2281

            IN - OUT =          21.7795              IN - OUT =       3.8704E-05

 PERCENT DISCREPANCY =           0.02     PERCENT DISCREPANCY =           0.02






          TIME SUMMARY AT END OF TIME STEP  45 IN STRESS PERIOD    1
                    SECONDS     MINUTES      HOURS       DAYS        YEARS
                    -----------------------------------------------------------
   TIME STEP LENGTH  41548.      692.47      11.541     0.48088     1.31659E-03
 STRESS PERIOD TIME 4.50762E+05  7512.7      125.21      5.2172     1.42838E-02
         TOTAL TIME 4.50762E+05  7512.7      125.21      5.2172     1.42838E-02
1
 
 SOLVING FOR HEAD 
     4 CALLS TO PCG ROUTINE FOR TIME STEP  46 IN STRESS PERIOD    1
    14 TOTAL ITERATIONS

 HEAD/DRAWDOWN PRINTOUT FLAG = 0     TOTAL BUDGET PRINTOUT FLAG = 1
 CELL-BY-CELL FLOW TERM FLAG = 0
 REUSING PREVIOUS VALUES OF IOFLG

 SAVING SATURATED THICKNESS AND FLOW TERMS ON UNIT  333 FOR MT3DMS
 BY THE LINK-MT3DMS PACKAGE V6.3 AT TIME STEP   46, STRESS PERIOD    1

1
  VOLUMETRIC BUDGET FOR ENTIRE MODEL AT END OF TIME STEP 46 IN STRESS PERIOD   1
  ------------------------------------------------------------------------------

     CUMULATIVE VOLUMES      L**3       RATES FOR THIS TIME STEP      L**3/T
     ------------------                 ------------------------

           IN:                                      IN:
           ---                                      ---
             STORAGE =       30734.4746               STORAGE =       1.4841E-02
       CONSTANT HEAD =       28495.3652         CONSTANT HEAD =       9.8783E-02
                 MNW =       59159.6797                   MNW =           0.1135

            TOTAL IN =      118389.5160              TOTAL IN =           0.2271

          OUT:                                     OUT:
          ----                                     ----
             STORAGE =       55845.1484               STORAGE =       9.2132E-02
       CONSTANT HEAD =        3361.2856         CONSTANT HEAD =       2.1456E-02
                 MNW =       59159.6797                   MNW =           0.1135

           TOTAL OUT =      118366.1170             TOTAL OUT =           0.2271

            IN - OUT =          23.4058              IN - OUT =       3.5621E-05

 PERCENT DISCREPANCY =           0.02     PERCENT DISCREPANCY =           0.02






          TIME SUMMARY AT END OF TIME STEP  46 IN STRESS PERIOD    1
                    SECONDS     MINUTES      HOURS       DAYS        YEARS
                    -----------------------------------------------------------
   TIME STEP LENGTH  45703.      761.72      12.695     0.52897     1.44825E-03
 STRESS PERIOD TIME 4.96466E+05  8274.4      137.91      5.7461     1.57320E-02
         TOTAL TIME 4.96466E+05  8274.4      137.91      5.7461     1.57320E-02
1
 
 SOLVING FOR HEAD 
     3 CALLS TO PCG ROUTINE FOR TIME STEP  47 IN STRESS PERIOD    1
    16 TOTAL ITERATIONS

 HEAD/DRAWDOWN PRINTOUT FLAG = 0     TOTAL BUDGET PRINTOUT FLAG = 1
 CELL-BY-CELL FLOW TERM FLAG = 0
 REUSING PREVIOUS VALUES OF IOFLG

 SAVING SATURATED THICKNESS AND FLOW TERMS ON UNIT  333 FOR MT3DMS
 BY THE LINK-MT3DMS PACKAGE V6.3 AT TIME STEP   47, STRESS PERIOD    1

1
  VOLUMETRIC BUDGET FOR ENTIRE MODEL AT END OF TIME STEP 47 IN STRESS PERIOD   1
  ------------------------------------------------------------------------------

     CUMULATIVE VOLUMES      L**3       RATES FOR THIS TIME STEP      L**3/T
     ------------------                 ------------------------

           IN:                                      IN:
           ---                                      ---
             STORAGE =       31304.6543               STORAGE =       1.1342E-02
       CONSTANT HEAD =       33612.5898         CONSTANT HEAD =           0.1018
                 MNW =       64841.8008                   MNW =           0.1130

            TOTAL IN =      129759.0470              TOTAL IN =           0.2262

          OUT:                                     OUT:
          ----                                     ----
             STORAGE =       60230.1953               STORAGE =       8.7224E-02
       CONSTANT HEAD =        4662.0591         CONSTANT HEAD =       2.5874E-02
                 MNW =       64841.8008                   MNW =           0.1130

           TOTAL OUT =      129734.0550             TOTAL OUT =           0.2261

            IN - OUT =          24.9897              IN - OUT =       3.1496E-05

 PERCENT DISCREPANCY =           0.02     PERCENT DISCREPANCY =           0.01






          TIME SUMMARY AT END OF TIME STEP  47 IN STRESS PERIOD    1
                    SECONDS     MINUTES      HOURS       DAYS        YEARS
                    -----------------------------------------------------------
   TIME STEP LENGTH  50274.      837.89      13.965     0.58187     1.59307E-03
 STRESS PERIOD TIME 5.46739E+05  9112.3      151.87      6.3280     1.73251E-02
         TOTAL TIME 5.46739E+05  9112.3      151.87      6.3280     1.73251E-02
1
 
 SOLVING FOR HEAD 
     3 CALLS TO PCG ROUTINE FOR TIME STEP  48 IN STRESS PERIOD    1
    15 TOTAL ITERATIONS

 HEAD/DRAWDOWN PRINTOUT FLAG = 0     TOTAL BUDGET PRINTOUT FLAG = 1
 CELL-BY-CELL FLOW TERM FLAG = 0
 REUSING PREVIOUS VALUES OF IOFLG

 SAVING SATURATED THICKNESS AND FLOW TERMS ON UNIT  333 FOR MT3DMS
 BY THE LINK-MT3DMS PACKAGE V6.3 AT TIME STEP   48, STRESS PERIOD    1

1
  VOLUMETRIC BUDGET FOR ENTIRE MODEL AT END OF TIME STEP 48 IN STRESS PERIOD   1
  ------------------------------------------------------------------------------

     CUMULATIVE VOLUMES      L**3       RATES FOR THIS TIME STEP      L**3/T
     ------------------                 ------------------------

           IN:                                      IN:
           ---                                      ---
             STORAGE =       31770.7402               STORAGE =       8.4282E-03
       CONSTANT HEAD =       39379.0703         CONSTANT HEAD =           0.1043
                 MNW =       71066.5781                   MNW =           0.1126

            TOTAL IN =      142216.3910              TOTAL IN =           0.2253

          OUT:                                     OUT:
          ----                                     ----
             STORAGE =       64764.3164               STORAGE =       8.1990E-02
       CONSTANT HEAD =        6358.9658         CONSTANT HEAD =       3.0685E-02
                 MNW =       71066.5781                   MNW =           0.1126

           TOTAL OUT =      142189.8590             TOTAL OUT =           0.2252

            IN - OUT =          26.5283              IN - OUT =       2.7816E-05

 PERCENT DISCREPANCY =           0.02     PERCENT DISCREPANCY =           0.01






          TIME SUMMARY AT END OF TIME STEP  48 IN STRESS PERIOD    1
                    SECONDS     MINUTES      HOURS       DAYS        YEARS
                    -----------------------------------------------------------
   TIME STEP LENGTH  55301.      921.68      15.361     0.64006     1.75238E-03
 STRESS PERIOD TIME 6.02040E+05  10034.      167.23      6.9681     1.90775E-02
         TOTAL TIME 6.02040E+05  10034.      167.23      6.9681     1.90775E-02
1
 
 SOLVING FOR HEAD 
     3 CALLS TO PCG ROUTINE FOR TIME STEP  49 IN STRESS PERIOD    1
    15 TOTAL ITERATIONS

 HEAD/DRAWDOWN PRINTOUT FLAG = 0     TOTAL BUDGET PRINTOUT FLAG = 1
 CELL-BY-CELL FLOW TERM FLAG = 0
 REUSING PREVIOUS VALUES OF IOFLG

 SAVING SATURATED THICKNESS AND FLOW TERMS ON UNIT  333 FOR MT3DMS
 BY THE LINK-MT3DMS PACKAGE V6.3 AT TIME STEP   49, STRESS PERIOD    1

1
  VOLUMETRIC BUDGET FOR ENTIRE MODEL AT END OF TIME STEP 49 IN STRESS PERIOD   1
  ------------------------------------------------------------------------------

     CUMULATIVE VOLUMES      L**3       RATES FOR THIS TIME STEP      L**3/T
     ------------------                 ------------------------

           IN:                                      IN:
           ---                                      ---
             STORAGE =       32134.1367               STORAGE =       5.9739E-03
       CONSTANT HEAD =       45843.4453         CONSTANT HEAD =           0.1063
                 MNW =       77887.0156                   MNW =           0.1121

            TOTAL IN =      155864.5940              TOTAL IN =           0.2244

          OUT:                                     OUT:
          ----                                     ----
             STORAGE =       69410.1719               STORAGE =       7.6373E-02
       CONSTANT HEAD =        8538.6162         CONSTANT HEAD =       3.5831E-02
                 MNW =       77887.0156                   MNW =           0.1121

           TOTAL OUT =      155835.7970             TOTAL OUT =           0.2243

            IN - OUT =          28.7939              IN - OUT =       3.7214E-05

 PERCENT DISCREPANCY =           0.02     PERCENT DISCREPANCY =           0.02






          TIME SUMMARY AT END OF TIME STEP  49 IN STRESS PERIOD    1
                    SECONDS     MINUTES      HOURS       DAYS        YEARS
                    -----------------------------------------------------------
   TIME STEP LENGTH  60831.      1013.9      16.898     0.70406     1.92762E-03
 STRESS PERIOD TIME 6.62871E+05  11048.      184.13      7.6721     2.10051E-02
         TOTAL TIME 6.62871E+05  11048.      184.13      7.6721     2.10051E-02
1
 
 SOLVING FOR HEAD 
     3 CALLS TO PCG ROUTINE FOR TIME STEP  50 IN STRESS PERIOD    1
    15 TOTAL ITERATIONS

 HEAD/DRAWDOWN PRINTOUT FLAG = 0     TOTAL BUDGET PRINTOUT FLAG = 1
 CELL-BY-CELL FLOW TERM FLAG = 0
 REUSING PREVIOUS VALUES OF IOFLG

 SAVING SATURATED THICKNESS AND FLOW TERMS ON UNIT  333 FOR MT3DMS
 BY THE LINK-MT3DMS PACKAGE V6.3 AT TIME STEP   50, STRESS PERIOD    1

1
  VOLUMETRIC BUDGET FOR ENTIRE MODEL AT END OF TIME STEP 50 IN STRESS PERIOD   1
  ------------------------------------------------------------------------------

     CUMULATIVE VOLUMES      L**3       RATES FOR THIS TIME STEP      L**3/T
     ------------------                 ------------------------

           IN:                                      IN:
           ---                                      ---
             STORAGE =       32403.9297               STORAGE =       4.0319E-03
       CONSTANT HEAD =       53056.0859         CONSTANT HEAD =           0.1078
                 MNW =       85360.4844                   MNW =           0.1117

            TOTAL IN =      170820.5000              TOTAL IN =           0.2235

          OUT:                                     OUT:
          ----                                     ----
             STORAGE =       74131.4766               STORAGE =       7.0558E-02
       CONSTANT HEAD =       11297.8428         CONSTANT HEAD =       4.1235E-02
                 MNW =       85360.4844                   MNW =           0.1117

           TOTAL OUT =      170789.7970             TOTAL OUT =           0.2235

            IN - OUT =          30.6963              IN - OUT =       2.8437E-05

 PERCENT DISCREPANCY =           0.02     PERCENT DISCREPANCY =           0.01






          TIME SUMMARY AT END OF TIME STEP  50 IN STRESS PERIOD    1
                    SECONDS     MINUTES      HOURS       DAYS        YEARS
                    -----------------------------------------------------------
   TIME STEP LENGTH  66914.      1115.2      18.587     0.77447     2.12038E-03
 STRESS PERIOD TIME 7.29785E+05  12163.      202.72      8.4466     2.31255E-02
         TOTAL TIME 7.29785E+05  12163.      202.72      8.4466     2.31255E-02
1
 
 SOLVING FOR HEAD 
     3 CALLS TO PCG ROUTINE FOR TIME STEP  51 IN STRESS PERIOD    1
    14 TOTAL ITERATIONS

 HEAD/DRAWDOWN PRINTOUT FLAG = 0     TOTAL BUDGET PRINTOUT FLAG = 1
 CELL-BY-CELL FLOW TERM FLAG = 0
 REUSING PREVIOUS VALUES OF IOFLG

 SAVING SATURATED THICKNESS AND FLOW TERMS ON UNIT  333 FOR MT3DMS
 BY THE LINK-MT3DMS PACKAGE V6.3 AT TIME STEP   51, STRESS PERIOD    1

1
  VOLUMETRIC BUDGET FOR ENTIRE MODEL AT END OF TIME STEP 51 IN STRESS PERIOD   1
  ------------------------------------------------------------------------------

     CUMULATIVE VOLUMES      L**3       RATES FOR THIS TIME STEP      L**3/T
     ------------------                 ------------------------

           IN:                                      IN:
           ---                                      ---
             STORAGE =       32589.7715               STORAGE =       2.5248E-03
       CONSTANT HEAD =       61071.3125         CONSTANT HEAD =           0.1089
                 MNW =       93550.6641                   MNW =           0.1113

            TOTAL IN =      187211.7500              TOTAL IN =           0.2227

          OUT:                                     OUT:
          ----                                     ----
             STORAGE =       78883.5156               STORAGE =       6.4561E-02
       CONSTANT HEAD =       14744.0020         CONSTANT HEAD =       4.6819E-02
                 MNW =       93550.6641                   MNW =           0.1113

           TOTAL OUT =      187178.1880             TOTAL OUT =           0.2227

            IN - OUT =          33.5664              IN - OUT =       3.9035E-05

 PERCENT DISCREPANCY =           0.02     PERCENT DISCREPANCY =           0.02






          TIME SUMMARY AT END OF TIME STEP  51 IN STRESS PERIOD    1
                    SECONDS     MINUTES      HOURS       DAYS        YEARS
                    -----------------------------------------------------------
   TIME STEP LENGTH  73606.      1226.8      20.446     0.85192     2.33242E-03
 STRESS PERIOD TIME 8.03391E+05  13390.      223.16      9.2985     2.54579E-02
         TOTAL TIME 8.03391E+05  13390.      223.16      9.2985     2.54579E-02
1
 
 SOLVING FOR HEAD 
     3 CALLS TO PCG ROUTINE FOR TIME STEP  52 IN STRESS PERIOD    1
    13 TOTAL ITERATIONS

 HEAD/DRAWDOWN PRINTOUT FLAG = 0     TOTAL BUDGET PRINTOUT FLAG = 1
 CELL-BY-CELL FLOW TERM FLAG = 0
 REUSING PREVIOUS VALUES OF IOFLG

 SAVING SATURATED THICKNESS AND FLOW TERMS ON UNIT  333 FOR MT3DMS
 BY THE LINK-MT3DMS PACKAGE V6.3 AT TIME STEP   52, STRESS PERIOD    1

1
  VOLUMETRIC BUDGET FOR ENTIRE MODEL AT END OF TIME STEP 52 IN STRESS PERIOD   1
  ------------------------------------------------------------------------------

     CUMULATIVE VOLUMES      L**3       RATES FOR THIS TIME STEP      L**3/T
     ------------------                 ------------------------

           IN:                                      IN:
           ---                                      ---
             STORAGE =       32702.2695               STORAGE =       1.3894E-03
       CONSTANT HEAD =       69947.9062         CONSTANT HEAD =           0.1096
                 MNW =      102527.5470                   MNW =           0.1109

            TOTAL IN =      205177.7190              TOTAL IN =           0.2219

          OUT:                                     OUT:
          ----                                     ----
             STORAGE =       83619.3672               STORAGE =       5.8492E-02
       CONSTANT HEAD =       18994.5684         CONSTANT HEAD =       5.2498E-02
                 MNW =      102527.5470                   MNW =           0.1109

           TOTAL OUT =      205141.4840             TOTAL OUT =           0.2219

            IN - OUT =          36.2402              IN - OUT =       3.3011E-05

 PERCENT DISCREPANCY =           0.02     PERCENT DISCREPANCY =           0.01






          TIME SUMMARY AT END OF TIME STEP  52 IN STRESS PERIOD    1
                    SECONDS     MINUTES      HOURS       DAYS        YEARS
                    -----------------------------------------------------------
   TIME STEP LENGTH  80966.      1349.4      22.491     0.93711     2.56566E-03
 STRESS PERIOD TIME 8.84357E+05  14739.      245.65      10.236     2.80236E-02
         TOTAL TIME 8.84357E+05  14739.      245.65      10.236     2.80236E-02
1
 
 SOLVING FOR HEAD 
     3 CALLS TO PCG ROUTINE FOR TIME STEP  53 IN STRESS PERIOD    1
    14 TOTAL ITERATIONS

 HEAD/DRAWDOWN PRINTOUT FLAG = 0     TOTAL BUDGET PRINTOUT FLAG = 1
 CELL-BY-CELL FLOW TERM FLAG = 0
 REUSING PREVIOUS VALUES OF IOFLG

 SAVING SATURATED THICKNESS AND FLOW TERMS ON UNIT  333 FOR MT3DMS
 BY THE LINK-MT3DMS PACKAGE V6.3 AT TIME STEP   53, STRESS PERIOD    1

1
  VOLUMETRIC BUDGET FOR ENTIRE MODEL AT END OF TIME STEP 53 IN STRESS PERIOD   1
  ------------------------------------------------------------------------------

     CUMULATIVE VOLUMES      L**3       RATES FOR THIS TIME STEP      L**3/T
     ------------------                 ------------------------

           IN:                                      IN:
           ---                                      ---
             STORAGE =       32756.7285               STORAGE =       6.1146E-04
       CONSTANT HEAD =       79750.4062         CONSTANT HEAD =           0.1101
                 MNW =      112367.7660                   MNW =           0.1105

            TOTAL IN =      224874.9060              TOTAL IN =           0.2212

          OUT:                                     OUT:
          ----                                     ----
             STORAGE =       88291.5469               STORAGE =       5.2459E-02
       CONSTANT HEAD =       24175.9688         CONSTANT HEAD =       5.8177E-02
                 MNW =      112367.7660                   MNW =           0.1105

           TOTAL OUT =      224835.2810             TOTAL OUT =           0.2211

            IN - OUT =          39.6191              IN - OUT =       3.7917E-05

 PERCENT DISCREPANCY =           0.02     PERCENT DISCREPANCY =           0.02






          TIME SUMMARY AT END OF TIME STEP  53 IN STRESS PERIOD    1
                    SECONDS     MINUTES      HOURS       DAYS        YEARS
                    -----------------------------------------------------------
   TIME STEP LENGTH  89063.      1484.4      24.740      1.0308     2.82223E-03
 STRESS PERIOD TIME 9.73420E+05  16224.      270.39      11.266     3.08458E-02
         TOTAL TIME 9.73420E+05  16224.      270.39      11.266     3.08458E-02
1
 
 SOLVING FOR HEAD 
     3 CALLS TO PCG ROUTINE FOR TIME STEP  54 IN STRESS PERIOD    1
    14 TOTAL ITERATIONS

 HEAD/DRAWDOWN PRINTOUT FLAG = 0     TOTAL BUDGET PRINTOUT FLAG = 1
 CELL-BY-CELL FLOW TERM FLAG = 0
 REUSING PREVIOUS VALUES OF IOFLG

 SAVING SATURATED THICKNESS AND FLOW TERMS ON UNIT  333 FOR MT3DMS
 BY THE LINK-MT3DMS PACKAGE V6.3 AT TIME STEP   54, STRESS PERIOD    1

1
  VOLUMETRIC BUDGET FOR ENTIRE MODEL AT END OF TIME STEP 54 IN STRESS PERIOD   1
  ------------------------------------------------------------------------------

     CUMULATIVE VOLUMES      L**3       RATES FOR THIS TIME STEP      L**3/T
     ------------------                 ------------------------

           IN:                                      IN:
           ---                                      ---
             STORAGE =       32771.3906               STORAGE =       1.4967E-04
       CONSTANT HEAD =       90551.0391         CONSTANT HEAD =           0.1102
                 MNW =      123156.2420                   MNW =           0.1101

            TOTAL IN =      246478.6720              TOTAL IN =           0.2205

          OUT:                                     OUT:
          ----                                     ----
             STORAGE =       92855.3594               STORAGE =       4.6584E-02
       CONSTANT HEAD =       30423.8184         CONSTANT HEAD =       6.3774E-02
                 MNW =      123156.2420                   MNW =           0.1101

           TOTAL OUT =      246435.4220             TOTAL OUT =           0.2205

            IN - OUT =          43.2520              IN - OUT =       3.7113E-05

 PERCENT DISCREPANCY =           0.02     PERCENT DISCREPANCY =           0.02






          TIME SUMMARY AT END OF TIME STEP  54 IN STRESS PERIOD    1
                    SECONDS     MINUTES      HOURS       DAYS        YEARS
                    -----------------------------------------------------------
   TIME STEP LENGTH  97969.      1632.8      27.214      1.1339     3.10445E-03
 STRESS PERIOD TIME 1.07139E+06  17856.      297.61      12.400     3.39503E-02
         TOTAL TIME 1.07139E+06  17856.      297.61      12.400     3.39503E-02
1
 
 SOLVING FOR HEAD 
     3 CALLS TO PCG ROUTINE FOR TIME STEP  55 IN STRESS PERIOD    1
    14 TOTAL ITERATIONS

 HEAD/DRAWDOWN PRINTOUT FLAG = 0     TOTAL BUDGET PRINTOUT FLAG = 1
 CELL-BY-CELL FLOW TERM FLAG = 0
 REUSING PREVIOUS VALUES OF IOFLG

 SAVING SATURATED THICKNESS AND FLOW TERMS ON UNIT  333 FOR MT3DMS
 BY THE LINK-MT3DMS PACKAGE V6.3 AT TIME STEP   55, STRESS PERIOD    1

1
  VOLUMETRIC BUDGET FOR ENTIRE MODEL AT END OF TIME STEP 55 IN STRESS PERIOD   1
  ------------------------------------------------------------------------------

     CUMULATIVE VOLUMES      L**3       RATES FOR THIS TIME STEP      L**3/T
     ------------------                 ------------------------

           IN:                                      IN:
           ---                                      ---
             STORAGE =       32771.4062               STORAGE =       1.6115E-07
       CONSTANT HEAD =      102430.8200         CONSTANT HEAD =           0.1102
                 MNW =      134986.1880                   MNW =           0.1098

            TOTAL IN =      270188.4060              TOTAL IN =           0.2200

          OUT:                                     OUT:
          ----                                     ----
             STORAGE =       97273.1719               STORAGE =       4.0995E-02
       CONSTANT HEAD =       37881.8281         CONSTANT HEAD =       6.9206E-02
                 MNW =      134986.1880                   MNW =           0.1098

           TOTAL OUT =      270141.1880             TOTAL OUT =           0.2200

            IN - OUT =          47.2266              IN - OUT =       3.6937E-05

 PERCENT DISCREPANCY =           0.02     PERCENT DISCREPANCY =           0.02






          TIME SUMMARY AT END OF TIME STEP  55 IN STRESS PERIOD    1
                    SECONDS     MINUTES      HOURS       DAYS        YEARS
                    -----------------------------------------------------------
   TIME STEP LENGTH 1.07766E+05  1796.1      29.935      1.2473     3.41490E-03
 STRESS PERIOD TIME 1.17915E+06  19653.      327.54      13.648     3.73652E-02
         TOTAL TIME 1.17915E+06  19653.      327.54      13.648     3.73652E-02
1
 
 SOLVING FOR HEAD 
     3 CALLS TO PCG ROUTINE FOR TIME STEP  56 IN STRESS PERIOD    1
    14 TOTAL ITERATIONS

 HEAD/DRAWDOWN PRINTOUT FLAG = 0     TOTAL BUDGET PRINTOUT FLAG = 1
 CELL-BY-CELL FLOW TERM FLAG = 0
 REUSING PREVIOUS VALUES OF IOFLG

 SAVING SATURATED THICKNESS AND FLOW TERMS ON UNIT  333 FOR MT3DMS
 BY THE LINK-MT3DMS PACKAGE V6.3 AT TIME STEP   56, STRESS PERIOD    1

1
  VOLUMETRIC BUDGET FOR ENTIRE MODEL AT END OF TIME STEP 56 IN STRESS PERIOD   1
  ------------------------------------------------------------------------------

     CUMULATIVE VOLUMES      L**3       RATES FOR THIS TIME STEP      L**3/T
     ------------------                 ------------------------

           IN:                                      IN:
           ---                                      ---
             STORAGE =       32771.4062               STORAGE =           0.0000
       CONSTANT HEAD =      115481.3280         CONSTANT HEAD =           0.1101
                 MNW =      147960.5620                   MNW =           0.1094

            TOTAL IN =      296213.3120              TOTAL IN =           0.2195

          OUT:                                     OUT:
          ----                                     ----
             STORAGE =      101500.3440               STORAGE =       3.5660E-02
       CONSTANT HEAD =       46701.0742         CONSTANT HEAD =       7.4397E-02
                 MNW =      147960.5620                   MNW =           0.1094

           TOTAL OUT =      296161.9690             TOTAL OUT =           0.2195

            IN - OUT =          51.3164              IN - OUT =       3.4478E-05

 PERCENT DISCREPANCY =           0.02     PERCENT DISCREPANCY =           0.02






          TIME SUMMARY AT END OF TIME STEP  56 IN STRESS PERIOD    1
                    SECONDS     MINUTES      HOURS       DAYS        YEARS
                    -----------------------------------------------------------
   TIME STEP LENGTH 1.18542E+05  1975.7      32.928      1.3720     3.75638E-03
 STRESS PERIOD TIME 1.29770E+06  21628.      360.47      15.020     4.11215E-02
         TOTAL TIME 1.29770E+06  21628.      360.47      15.020     4.11215E-02
1
 
 SOLVING FOR HEAD 
     3 CALLS TO PCG ROUTINE FOR TIME STEP  57 IN STRESS PERIOD    1
    14 TOTAL ITERATIONS

 HEAD/DRAWDOWN PRINTOUT FLAG = 0     TOTAL BUDGET PRINTOUT FLAG = 1
 CELL-BY-CELL FLOW TERM FLAG = 0
 REUSING PREVIOUS VALUES OF IOFLG

 SAVING SATURATED THICKNESS AND FLOW TERMS ON UNIT  333 FOR MT3DMS
 BY THE LINK-MT3DMS PACKAGE V6.3 AT TIME STEP   57, STRESS PERIOD    1

1
  VOLUMETRIC BUDGET FOR ENTIRE MODEL AT END OF TIME STEP 57 IN STRESS PERIOD   1
  ------------------------------------------------------------------------------

     CUMULATIVE VOLUMES      L**3       RATES FOR THIS TIME STEP      L**3/T
     ------------------                 ------------------------

           IN:                                      IN:
           ---                                      ---
             STORAGE =       32771.4062               STORAGE =           0.0000
       CONSTANT HEAD =      129806.1090         CONSTANT HEAD =           0.1099
                 MNW =      162192.9530                   MNW =           0.1091

            TOTAL IN =      324770.4690              TOTAL IN =           0.2190

          OUT:                                     OUT:
          ----                                     ----
             STORAGE =      105483.1410               STORAGE =       3.0544E-02
       CONSTANT HEAD =       57039.1523         CONSTANT HEAD =       7.9282E-02
                 MNW =      162192.9530                   MNW =           0.1091

           TOTAL OUT =      324715.2500             TOTAL OUT =           0.2190

            IN - OUT =          55.2227              IN - OUT =       2.9912E-05

 PERCENT DISCREPANCY =           0.02     PERCENT DISCREPANCY =           0.01






          TIME SUMMARY AT END OF TIME STEP  57 IN STRESS PERIOD    1
                    SECONDS     MINUTES      HOURS       DAYS        YEARS
                    -----------------------------------------------------------
   TIME STEP LENGTH 1.30397E+05  2173.3      36.221      1.5092     4.13202E-03
 STRESS PERIOD TIME 1.42809E+06  23802.      396.69      16.529     4.52536E-02
         TOTAL TIME 1.42809E+06  23802.      396.69      16.529     4.52536E-02
1
 
 SOLVING FOR HEAD 
     3 CALLS TO PCG ROUTINE FOR TIME STEP  58 IN STRESS PERIOD    1
    14 TOTAL ITERATIONS

 HEAD/DRAWDOWN PRINTOUT FLAG = 0     TOTAL BUDGET PRINTOUT FLAG = 1
 CELL-BY-CELL FLOW TERM FLAG = 0
 REUSING PREVIOUS VALUES OF IOFLG

 SAVING SATURATED THICKNESS AND FLOW TERMS ON UNIT  333 FOR MT3DMS
 BY THE LINK-MT3DMS PACKAGE V6.3 AT TIME STEP   58, STRESS PERIOD    1

1
  VOLUMETRIC BUDGET FOR ENTIRE MODEL AT END OF TIME STEP 58 IN STRESS PERIOD   1
  ------------------------------------------------------------------------------

     CUMULATIVE VOLUMES      L**3       RATES FOR THIS TIME STEP      L**3/T
     ------------------                 ------------------------

           IN:                                      IN:
           ---                                      ---
             STORAGE =       32771.4062               STORAGE =           0.0000
       CONSTANT HEAD =      145522.1410         CONSTANT HEAD =           0.1096
                 MNW =      177808.8120                   MNW =           0.1089

            TOTAL IN =      356102.3750              TOTAL IN =           0.2184

          OUT:                                     OUT:
          ----                                     ----
             STORAGE =      109175.1020               STORAGE =       2.5739E-02
       CONSTANT HEAD =       69059.5234         CONSTANT HEAD =       8.3803E-02
                 MNW =      177808.8120                   MNW =           0.1089

           TOTAL OUT =      356043.4380             TOTAL OUT =           0.2184

            IN - OUT =          58.9219              IN - OUT =       2.5844E-05

 PERCENT DISCREPANCY =           0.02     PERCENT DISCREPANCY =           0.01






          TIME SUMMARY AT END OF TIME STEP  58 IN STRESS PERIOD    1
                    SECONDS     MINUTES      HOURS       DAYS        YEARS
                    -----------------------------------------------------------
   TIME STEP LENGTH 1.43436E+05  2390.6      39.843      1.6601     4.54523E-03
 STRESS PERIOD TIME 1.57153E+06  26192.      436.54      18.189     4.97988E-02
         TOTAL TIME 1.57153E+06  26192.      436.54      18.189     4.97988E-02
1
 
 SOLVING FOR HEAD 
     3 CALLS TO PCG ROUTINE FOR TIME STEP  59 IN STRESS PERIOD    1
    14 TOTAL ITERATIONS

 HEAD/DRAWDOWN PRINTOUT FLAG = 0     TOTAL BUDGET PRINTOUT FLAG = 1
 CELL-BY-CELL FLOW TERM FLAG = 0
 REUSING PREVIOUS VALUES OF IOFLG

 SAVING SATURATED THICKNESS AND FLOW TERMS ON UNIT  333 FOR MT3DMS
 BY THE LINK-MT3DMS PACKAGE V6.3 AT TIME STEP   59, STRESS PERIOD    1

1
  VOLUMETRIC BUDGET FOR ENTIRE MODEL AT END OF TIME STEP 59 IN STRESS PERIOD   1
  ------------------------------------------------------------------------------

     CUMULATIVE VOLUMES      L**3       RATES FOR THIS TIME STEP      L**3/T
     ------------------                 ------------------------

           IN:                                      IN:
           ---                                      ---
             STORAGE =       32771.4062               STORAGE =           0.0000
       CONSTANT HEAD =      162761.1880         CONSTANT HEAD =           0.1093
                 MNW =      194946.7030                   MNW =           0.1086

            TOTAL IN =      390479.3120              TOTAL IN =           0.2179

          OUT:                                     OUT:
          ----                                     ----
             STORAGE =      112539.1410               STORAGE =       2.1321E-02
       CONSTANT HEAD =       82931.1172         CONSTANT HEAD =       8.7917E-02
                 MNW =      194946.7030                   MNW =           0.1086

           TOTAL OUT =      390416.9690             TOTAL OUT =           0.2179

            IN - OUT =          62.3359              IN - OUT =       2.1698E-05

 PERCENT DISCREPANCY =           0.02     PERCENT DISCREPANCY =           0.01






          TIME SUMMARY AT END OF TIME STEP  59 IN STRESS PERIOD    1
                    SECONDS     MINUTES      HOURS       DAYS        YEARS
                    -----------------------------------------------------------
   TIME STEP LENGTH 1.57780E+05  2629.7      43.828      1.8262     4.99975E-03
 STRESS PERIOD TIME 1.72931E+06  28822.      480.36      20.015     5.47985E-02
         TOTAL TIME 1.72931E+06  28822.      480.36      20.015     5.47985E-02
1
 
 SOLVING FOR HEAD 
     3 CALLS TO PCG ROUTINE FOR TIME STEP  60 IN STRESS PERIOD    1
    13 TOTAL ITERATIONS

 HEAD/DRAWDOWN PRINTOUT FLAG = 0     TOTAL BUDGET PRINTOUT FLAG = 1
 CELL-BY-CELL FLOW TERM FLAG = 0
 REUSING PREVIOUS VALUES OF IOFLG

 SAVING SATURATED THICKNESS AND FLOW TERMS ON UNIT  333 FOR MT3DMS
 BY THE LINK-MT3DMS PACKAGE V6.3 AT TIME STEP   60, STRESS PERIOD    1

1
  VOLUMETRIC BUDGET FOR ENTIRE MODEL AT END OF TIME STEP 60 IN STRESS PERIOD   1
  ------------------------------------------------------------------------------

     CUMULATIVE VOLUMES      L**3       RATES FOR THIS TIME STEP      L**3/T
     ------------------                 ------------------------

           IN:                                      IN:
           ---                                      ---
             STORAGE =       32771.4062               STORAGE =           0.0000
       CONSTANT HEAD =      181672.6560         CONSTANT HEAD =           0.1090
                 MNW =      213758.9380                   MNW =           0.1084

            TOTAL IN =      428203.0000              TOTAL IN =           0.2174

          OUT:                                     OUT:
          ----                                     ----
             STORAGE =      115549.8200               STORAGE =       1.7347E-02
       CONSTANT HEAD =       98827.5312         CONSTANT HEAD =       9.1591E-02
                 MNW =      213758.9380                   MNW =           0.1084

           TOTAL OUT =      428136.2810             TOTAL OUT =           0.2173

            IN - OUT =          66.7109              IN - OUT =       2.5257E-05

 PERCENT DISCREPANCY =           0.02     PERCENT DISCREPANCY =           0.01






          TIME SUMMARY AT END OF TIME STEP  60 IN STRESS PERIOD    1
                    SECONDS     MINUTES      HOURS       DAYS        YEARS
                    -----------------------------------------------------------
   TIME STEP LENGTH 1.73558E+05  2892.6      48.211      2.0088     5.49972E-03
 STRESS PERIOD TIME 1.90287E+06  31714.      528.57      22.024     6.02983E-02
         TOTAL TIME 1.90287E+06  31714.      528.57      22.024     6.02983E-02
1
 
 SOLVING FOR HEAD 
     3 CALLS TO PCG ROUTINE FOR TIME STEP  61 IN STRESS PERIOD    1
    12 TOTAL ITERATIONS

 HEAD/DRAWDOWN PRINTOUT FLAG = 0     TOTAL BUDGET PRINTOUT FLAG = 1
 CELL-BY-CELL FLOW TERM FLAG = 0
 REUSING PREVIOUS VALUES OF IOFLG

 SAVING SATURATED THICKNESS AND FLOW TERMS ON UNIT  333 FOR MT3DMS
 BY THE LINK-MT3DMS PACKAGE V6.3 AT TIME STEP   61, STRESS PERIOD    1

1
  VOLUMETRIC BUDGET FOR ENTIRE MODEL AT END OF TIME STEP 61 IN STRESS PERIOD   1
  ------------------------------------------------------------------------------

     CUMULATIVE VOLUMES      L**3       RATES FOR THIS TIME STEP      L**3/T
     ------------------                 ------------------------

           IN:                                      IN:
           ---                                      ---
             STORAGE =       32771.4062               STORAGE =           0.0000
       CONSTANT HEAD =      202422.9060         CONSTANT HEAD =           0.1087
                 MNW =      234415.2810                   MNW =           0.1082

            TOTAL IN =      469609.5940              TOTAL IN =           0.2169

          OUT:                                     OUT:
          ----                                     ----
             STORAGE =      118191.7730               STORAGE =       1.3838E-02
       CONSTANT HEAD =      116929.0940         CONSTANT HEAD =       9.4815E-02
                 MNW =      234415.2810                   MNW =           0.1082

           TOTAL OUT =      469536.1560             TOTAL OUT =           0.2169

            IN - OUT =          73.4453              IN - OUT =       3.5291E-05

 PERCENT DISCREPANCY =           0.02     PERCENT DISCREPANCY =           0.02






          TIME SUMMARY AT END OF TIME STEP  61 IN STRESS PERIOD    1
                    SECONDS     MINUTES      HOURS       DAYS        YEARS
                    -----------------------------------------------------------
   TIME STEP LENGTH 1.90914E+05  3181.9      53.032      2.2097     6.04970E-03
 STRESS PERIOD TIME 2.09378E+06  34896.      581.61      24.234     6.63480E-02
         TOTAL TIME 2.09378E+06  34896.      581.61      24.234     6.63480E-02
1
 
 SOLVING FOR HEAD 
     3 CALLS TO PCG ROUTINE FOR TIME STEP  62 IN STRESS PERIOD    1
    12 TOTAL ITERATIONS

 HEAD/DRAWDOWN PRINTOUT FLAG = 0     TOTAL BUDGET PRINTOUT FLAG = 1
 CELL-BY-CELL FLOW TERM FLAG = 0
 REUSING PREVIOUS VALUES OF IOFLG

 SAVING SATURATED THICKNESS AND FLOW TERMS ON UNIT  333 FOR MT3DMS
 BY THE LINK-MT3DMS PACKAGE V6.3 AT TIME STEP   62, STRESS PERIOD    1

1
  VOLUMETRIC BUDGET FOR ENTIRE MODEL AT END OF TIME STEP 62 IN STRESS PERIOD   1
  ------------------------------------------------------------------------------

     CUMULATIVE VOLUMES      L**3       RATES FOR THIS TIME STEP      L**3/T
     ------------------                 ------------------------

           IN:                                      IN:
           ---                                      ---
             STORAGE =       32771.4062               STORAGE =           0.0000
       CONSTANT HEAD =      225195.0620         CONSTANT HEAD =           0.1084
                 MNW =      257101.7810                   MNW =           0.1080

            TOTAL IN =      515068.2500              TOTAL IN =           0.2165

          OUT:                                     OUT:
          ----                                     ----
             STORAGE =      120461.9690               STORAGE =       1.0810E-02
       CONSTANT HEAD =      137422.2810         CONSTANT HEAD =       9.7584E-02
                 MNW =      257101.7810                   MNW =           0.1080

           TOTAL OUT =      514986.0310             TOTAL OUT =           0.2164

            IN - OUT =          82.2188              IN - OUT =       4.1788E-05

 PERCENT DISCREPANCY =           0.02     PERCENT DISCREPANCY =           0.02






          TIME SUMMARY AT END OF TIME STEP  62 IN STRESS PERIOD    1
                    SECONDS     MINUTES      HOURS       DAYS        YEARS
                    -----------------------------------------------------------
   TIME STEP LENGTH 2.10005E+05  3500.1      58.335      2.4306     6.65467E-03
 STRESS PERIOD TIME 2.30379E+06  38396.      639.94      26.664     7.30026E-02
         TOTAL TIME 2.30379E+06  38396.      639.94      26.664     7.30026E-02
1
 
 SOLVING FOR HEAD 
     3 CALLS TO PCG ROUTINE FOR TIME STEP  63 IN STRESS PERIOD    1
    11 TOTAL ITERATIONS

 HEAD/DRAWDOWN PRINTOUT FLAG = 0     TOTAL BUDGET PRINTOUT FLAG = 1
 CELL-BY-CELL FLOW TERM FLAG = 0
 REUSING PREVIOUS VALUES OF IOFLG

 SAVING SATURATED THICKNESS AND FLOW TERMS ON UNIT  333 FOR MT3DMS
 BY THE LINK-MT3DMS PACKAGE V6.3 AT TIME STEP   63, STRESS PERIOD    1

1
  VOLUMETRIC BUDGET FOR ENTIRE MODEL AT END OF TIME STEP 63 IN STRESS PERIOD   1
  ------------------------------------------------------------------------------

     CUMULATIVE VOLUMES      L**3       RATES FOR THIS TIME STEP      L**3/T
     ------------------                 ------------------------

           IN:                                      IN:
           ---                                      ---
             STORAGE =       32771.4062               STORAGE =           0.0000
       CONSTANT HEAD =      250194.7340         CONSTANT HEAD =           0.1082
                 MNW =      282023.4060                   MNW =           0.1079

            TOTAL IN =      564989.5620              TOTAL IN =           0.2161

          OUT:                                     OUT:
          ----                                     ----
             STORAGE =      122371.2660               STORAGE =       8.2651E-03
       CONSTANT HEAD =      160501.8120         CONSTANT HEAD =       9.9909E-02
                 MNW =      282023.4060                   MNW =           0.1079

           TOTAL OUT =      564896.5000             TOTAL OUT =           0.2161

            IN - OUT =          93.0625              IN - OUT =       4.6943E-05

 PERCENT DISCREPANCY =           0.02     PERCENT DISCREPANCY =           0.02






          TIME SUMMARY AT END OF TIME STEP  63 IN STRESS PERIOD    1
                    SECONDS     MINUTES      HOURS       DAYS        YEARS
                    -----------------------------------------------------------
   TIME STEP LENGTH 2.31006E+05  3850.1      64.168      2.6737     7.32013E-03
 STRESS PERIOD TIME 2.53479E+06  42247.      704.11      29.338     8.03227E-02
         TOTAL TIME 2.53479E+06  42247.      704.11      29.338     8.03227E-02
1
 
 SOLVING FOR HEAD 
     3 CALLS TO PCG ROUTINE FOR TIME STEP  64 IN STRESS PERIOD    1
    10 TOTAL ITERATIONS

 HEAD/DRAWDOWN PRINTOUT FLAG = 0     TOTAL BUDGET PRINTOUT FLAG = 1
 CELL-BY-CELL FLOW TERM FLAG = 0
 REUSING PREVIOUS VALUES OF IOFLG

 SAVING SATURATED THICKNESS AND FLOW TERMS ON UNIT  333 FOR MT3DMS
 BY THE LINK-MT3DMS PACKAGE V6.3 AT TIME STEP   64, STRESS PERIOD    1

1
  VOLUMETRIC BUDGET FOR ENTIRE MODEL AT END OF TIME STEP 64 IN STRESS PERIOD   1
  ------------------------------------------------------------------------------

     CUMULATIVE VOLUMES      L**3       RATES FOR THIS TIME STEP      L**3/T
     ------------------                 ------------------------

           IN:                                      IN:
           ---                                      ---
             STORAGE =       32771.4062               STORAGE =           0.0000
       CONSTANT HEAD =      277647.5940         CONSTANT HEAD =           0.1080
                 MNW =      309405.9690                   MNW =           0.1078

            TOTAL IN =      619825.0000              TOTAL IN =           0.2158

          OUT:                                     OUT:
          ----                                     ----
             STORAGE =      123935.3750               STORAGE =       6.1553E-03
       CONSTANT HEAD =      186378.2810         CONSTANT HEAD =           0.1018
                 MNW =      309405.9690                   MNW =           0.1078

           TOTAL OUT =      619719.6250             TOTAL OUT =           0.2157

            IN - OUT =         105.3438              IN - OUT =       4.8382E-05

 PERCENT DISCREPANCY =           0.02     PERCENT DISCREPANCY =           0.02






          TIME SUMMARY AT END OF TIME STEP  64 IN STRESS PERIOD    1
                    SECONDS     MINUTES      HOURS       DAYS        YEARS
                    -----------------------------------------------------------
   TIME STEP LENGTH 2.54106E+05  4235.1      70.585      2.9410     8.05215E-03
 STRESS PERIOD TIME 2.78890E+06  46482.      774.69      32.279     8.83749E-02
         TOTAL TIME 2.78890E+06  46482.      774.69      32.279     8.83749E-02
1
 
 SOLVING FOR HEAD 
     2 CALLS TO PCG ROUTINE FOR TIME STEP  65 IN STRESS PERIOD    1
     8 TOTAL ITERATIONS

 HEAD/DRAWDOWN PRINTOUT FLAG = 0     TOTAL BUDGET PRINTOUT FLAG = 1
 CELL-BY-CELL FLOW TERM FLAG = 0
 REUSING PREVIOUS VALUES OF IOFLG

 SAVING SATURATED THICKNESS AND FLOW TERMS ON UNIT  333 FOR MT3DMS
 BY THE LINK-MT3DMS PACKAGE V6.3 AT TIME STEP   65, STRESS PERIOD    1

1
  VOLUMETRIC BUDGET FOR ENTIRE MODEL AT END OF TIME STEP 65 IN STRESS PERIOD   1
  ------------------------------------------------------------------------------

     CUMULATIVE VOLUMES      L**3       RATES FOR THIS TIME STEP      L**3/T
     ------------------                 ------------------------

           IN:                                      IN:
           ---                                      ---
             STORAGE =       32771.4062               STORAGE =           0.0000
       CONSTANT HEAD =      307794.1560         CONSTANT HEAD =           0.1079
                 MNW =      339441.0620                   MNW =           0.1075

            TOTAL IN =      680006.6250              TOTAL IN =           0.2153

          OUT:                                     OUT:
          ----                                     ----
             STORAGE =      125184.3980               STORAGE =       4.4685E-03
       CONSTANT HEAD =      215240.0160         CONSTANT HEAD =           0.1033
                 MNW =      339441.0620                   MNW =           0.1075

           TOTAL OUT =      679865.5000             TOTAL OUT =           0.2152

            IN - OUT =         141.1484              IN - OUT =       1.2814E-04

 PERCENT DISCREPANCY =           0.02     PERCENT DISCREPANCY =           0.06






          TIME SUMMARY AT END OF TIME STEP  65 IN STRESS PERIOD    1
                    SECONDS     MINUTES      HOURS       DAYS        YEARS
                    -----------------------------------------------------------
   TIME STEP LENGTH 2.79517E+05  4658.6      77.644      3.2352     8.85736E-03
 STRESS PERIOD TIME 3.06842E+06  51140.      852.34      35.514     9.72323E-02
         TOTAL TIME 3.06842E+06  51140.      852.34      35.514     9.72323E-02
1
 
 SOLVING FOR HEAD 
     3 CALLS TO PCG ROUTINE FOR TIME STEP  66 IN STRESS PERIOD    1
    13 TOTAL ITERATIONS

 HEAD/DRAWDOWN PRINTOUT FLAG = 0     TOTAL BUDGET PRINTOUT FLAG = 1
 CELL-BY-CELL FLOW TERM FLAG = 0
 REUSING PREVIOUS VALUES OF IOFLG

 SAVING SATURATED THICKNESS AND FLOW TERMS ON UNIT  333 FOR MT3DMS
 BY THE LINK-MT3DMS PACKAGE V6.3 AT TIME STEP   66, STRESS PERIOD    1

1
  VOLUMETRIC BUDGET FOR ENTIRE MODEL AT END OF TIME STEP 66 IN STRESS PERIOD   1
  ------------------------------------------------------------------------------

     CUMULATIVE VOLUMES      L**3       RATES FOR THIS TIME STEP      L**3/T
     ------------------                 ------------------------

           IN:                                      IN:
           ---                                      ---
             STORAGE =       32771.4062               STORAGE =           0.0000
       CONSTANT HEAD =      340904.1560         CONSTANT HEAD =           0.1077
                 MNW =      372533.8120                   MNW =           0.1076

            TOTAL IN =      746209.3750              TOTAL IN =           0.2153

          OUT:                                     OUT:
          ----                                     ----
             STORAGE =      126149.0230               STORAGE =       3.1373E-03
       CONSTANT HEAD =      247378.0620         CONSTANT HEAD =           0.1045
                 MNW =      372533.8120                   MNW =           0.1076

           TOTAL OUT =      746060.8750             TOTAL OUT =           0.2153

            IN - OUT =         148.4766              IN - OUT =       2.3797E-05

 PERCENT DISCREPANCY =           0.02     PERCENT DISCREPANCY =           0.01






          TIME SUMMARY AT END OF TIME STEP  66 IN STRESS PERIOD    1
                    SECONDS     MINUTES      HOURS       DAYS        YEARS
                    -----------------------------------------------------------
   TIME STEP LENGTH 3.07469E+05  5124.5      85.408      3.5587     9.74310E-03
 STRESS PERIOD TIME 3.37588E+06  56265.      937.75      39.073     0.10698    
         TOTAL TIME 3.37588E+06  56265.      937.75      39.073     0.10698    
1
 
 SOLVING FOR HEAD 
     3 CALLS TO PCG ROUTINE FOR TIME STEP  67 IN STRESS PERIOD    1
     8 TOTAL ITERATIONS

 HEAD/DRAWDOWN PRINTOUT FLAG = 0     TOTAL BUDGET PRINTOUT FLAG = 1
 CELL-BY-CELL FLOW TERM FLAG = 0
 REUSING PREVIOUS VALUES OF IOFLG

 SAVING SATURATED THICKNESS AND FLOW TERMS ON UNIT  333 FOR MT3DMS
 BY THE LINK-MT3DMS PACKAGE V6.3 AT TIME STEP   67, STRESS PERIOD    1

1
  VOLUMETRIC BUDGET FOR ENTIRE MODEL AT END OF TIME STEP 67 IN STRESS PERIOD   1
  ------------------------------------------------------------------------------

     CUMULATIVE VOLUMES      L**3       RATES FOR THIS TIME STEP      L**3/T
     ------------------                 ------------------------

           IN:                                      IN:
           ---                                      ---
             STORAGE =       32771.4102               STORAGE =       9.8364E-09
       CONSTANT HEAD =      377311.0000         CONSTANT HEAD =           0.1076
                 MNW =      408907.2190                   MNW =           0.1075

            TOTAL IN =      818989.6250              TOTAL IN =           0.2152

          OUT:                                     OUT:
          ----                                     ----
             STORAGE =      126886.7110               STORAGE =       2.1811E-03
       CONSTANT HEAD =      283050.0310         CONSTANT HEAD =           0.1055
                 MNW =      408907.2190                   MNW =           0.1075

           TOTAL OUT =      818843.9380             TOTAL OUT =           0.2152

            IN - OUT =         145.6680              IN - OUT =      -8.3239E-06

 PERCENT DISCREPANCY =           0.02     PERCENT DISCREPANCY =           0.00






          TIME SUMMARY AT END OF TIME STEP  67 IN STRESS PERIOD    1
                    SECONDS     MINUTES      HOURS       DAYS        YEARS
                    -----------------------------------------------------------
   TIME STEP LENGTH 3.38216E+05  5636.9      93.949      3.9145     1.07174E-02
 STRESS PERIOD TIME 3.71410E+06  61902.      1031.7      42.987     0.11769    
         TOTAL TIME 3.71410E+06  61902.      1031.7      42.987     0.11769    
1
 
 SOLVING FOR HEAD 
     4 CALLS TO PCG ROUTINE FOR TIME STEP  68 IN STRESS PERIOD    1
    11 TOTAL ITERATIONS

 HEAD/DRAWDOWN PRINTOUT FLAG = 0     TOTAL BUDGET PRINTOUT FLAG = 1
 CELL-BY-CELL FLOW TERM FLAG = 0
 REUSING PREVIOUS VALUES OF IOFLG

 SAVING SATURATED THICKNESS AND FLOW TERMS ON UNIT  333 FOR MT3DMS
 BY THE LINK-MT3DMS PACKAGE V6.3 AT TIME STEP   68, STRESS PERIOD    1

1
  VOLUMETRIC BUDGET FOR ENTIRE MODEL AT END OF TIME STEP 68 IN STRESS PERIOD   1
  ------------------------------------------------------------------------------

     CUMULATIVE VOLUMES      L**3       RATES FOR THIS TIME STEP      L**3/T
     ------------------                 ------------------------

           IN:                                      IN:
           ---                                      ---
             STORAGE =       32771.4102               STORAGE =       1.0254E-12
       CONSTANT HEAD =      417334.9060         CONSTANT HEAD =           0.1076
                 MNW =      449024.0940                   MNW =           0.1078

            TOTAL IN =      899130.4380              TOTAL IN =           0.2154

          OUT:                                     OUT:
          ----                                     ----
             STORAGE =      127435.6880               STORAGE =       1.4756E-03
       CONSTANT HEAD =      322523.5000         CONSTANT HEAD =           0.1061
                 MNW =      449024.0940                   MNW =           0.1078

           TOTAL OUT =      898983.2500             TOTAL OUT =           0.2154

            IN - OUT =         147.1289              IN - OUT =       3.9578E-06

 PERCENT DISCREPANCY =           0.02     PERCENT DISCREPANCY =           0.00






          TIME SUMMARY AT END OF TIME STEP  68 IN STRESS PERIOD    1
                    SECONDS     MINUTES      HOURS       DAYS        YEARS
                    -----------------------------------------------------------
   TIME STEP LENGTH 3.72037E+05  6200.6      103.34      4.3060     1.17891E-02
 STRESS PERIOD TIME 4.08614E+06  68102.      1135.0      47.293     0.12948    
         TOTAL TIME 4.08614E+06  68102.      1135.0      47.293     0.12948    
1
 
 SOLVING FOR HEAD 
     3 CALLS TO PCG ROUTINE FOR TIME STEP  69 IN STRESS PERIOD    1
    13 TOTAL ITERATIONS

 HEAD/DRAWDOWN PRINTOUT FLAG = 0     TOTAL BUDGET PRINTOUT FLAG = 1
 CELL-BY-CELL FLOW TERM FLAG = 0
 REUSING PREVIOUS VALUES OF IOFLG

 SAVING SATURATED THICKNESS AND FLOW TERMS ON UNIT  333 FOR MT3DMS
 BY THE LINK-MT3DMS PACKAGE V6.3 AT TIME STEP   69, STRESS PERIOD    1

1
  VOLUMETRIC BUDGET FOR ENTIRE MODEL AT END OF TIME STEP 69 IN STRESS PERIOD   1
  ------------------------------------------------------------------------------

     CUMULATIVE VOLUMES      L**3       RATES FOR THIS TIME STEP      L**3/T
     ------------------                 ------------------------

           IN:                                      IN:
           ---                                      ---
             STORAGE =       32771.6562               STORAGE =       6.0040E-07
       CONSTANT HEAD =      461357.2810         CONSTANT HEAD =           0.1076
                 MNW =      493008.8750                   MNW =           0.1075

            TOTAL IN =      987137.8130              TOTAL IN =           0.2151

          OUT:                                     OUT:
          ----                                     ----
             STORAGE =      127843.8750               STORAGE =       9.9743E-04
       CONSTANT HEAD =      366149.7500         CONSTANT HEAD =           0.1066
                 MNW =      493008.8750                   MNW =           0.1075

           TOTAL OUT =      987002.5000             TOTAL OUT =           0.2151

            IN - OUT =         135.3125              IN - OUT =      -2.8900E-05

 PERCENT DISCREPANCY =           0.01     PERCENT DISCREPANCY =          -0.01






          TIME SUMMARY AT END OF TIME STEP  69 IN STRESS PERIOD    1
                    SECONDS     MINUTES      HOURS       DAYS        YEARS
                    -----------------------------------------------------------
   TIME STEP LENGTH 4.09241E+05  6820.7      113.68      4.7366     1.29681E-02
 STRESS PERIOD TIME 4.49538E+06  74923.      1248.7      52.030     0.14245    
         TOTAL TIME 4.49538E+06  74923.      1248.7      52.030     0.14245    
1
 
 SOLVING FOR HEAD 
     4 CALLS TO PCG ROUTINE FOR TIME STEP  70 IN STRESS PERIOD    1
    11 TOTAL ITERATIONS

 HEAD/DRAWDOWN PRINTOUT FLAG = 0     TOTAL BUDGET PRINTOUT FLAG = 1
 CELL-BY-CELL FLOW TERM FLAG = 0
 REUSING PREVIOUS VALUES OF IOFLG

 SAVING SATURATED THICKNESS AND FLOW TERMS ON UNIT  333 FOR MT3DMS
 BY THE LINK-MT3DMS PACKAGE V6.3 AT TIME STEP   70, STRESS PERIOD    1

1
  VOLUMETRIC BUDGET FOR ENTIRE MODEL AT END OF TIME STEP 70 IN STRESS PERIOD   1
  ------------------------------------------------------------------------------

     CUMULATIVE VOLUMES      L**3       RATES FOR THIS TIME STEP      L**3/T
     ------------------                 ------------------------

           IN:                                      IN:
           ---                                      ---
             STORAGE =       32771.6562               STORAGE =       4.1384E-11
       CONSTANT HEAD =      509748.0310         CONSTANT HEAD =           0.1075
                 MNW =      541585.6250                   MNW =           0.1079

            TOTAL IN =     1084105.2500              TOTAL IN =           0.2154

          OUT:                                     OUT:
          ----                                     ----
             STORAGE =      128109.4450               STORAGE =       5.8993E-04
       CONSTANT HEAD =      414279.7190         CONSTANT HEAD =           0.1069
                 MNW =      541585.6250                   MNW =           0.1079

           TOTAL OUT =     1083974.7500             TOTAL OUT =           0.2154

            IN - OUT =         130.5234              IN - OUT =      -1.0607E-05

 PERCENT DISCREPANCY =           0.01     PERCENT DISCREPANCY =           0.00






          TIME SUMMARY AT END OF TIME STEP  70 IN STRESS PERIOD    1
                    SECONDS     MINUTES      HOURS       DAYS        YEARS
                    -----------------------------------------------------------
   TIME STEP LENGTH 4.50165E+05  7502.7      125.05      5.2102     1.42649E-02
 STRESS PERIOD TIME 4.94554E+06  82426.      1373.8      57.240     0.15671    
         TOTAL TIME 4.94554E+06  82426.      1373.8      57.240     0.15671    
1
 
 SOLVING FOR HEAD 
     3 CALLS TO PCG ROUTINE FOR TIME STEP  71 IN STRESS PERIOD    1
    15 TOTAL ITERATIONS

 HEAD/DRAWDOWN PRINTOUT FLAG = 0     TOTAL BUDGET PRINTOUT FLAG = 1
 CELL-BY-CELL FLOW TERM FLAG = 0
 REUSING PREVIOUS VALUES OF IOFLG

 SAVING SATURATED THICKNESS AND FLOW TERMS ON UNIT  333 FOR MT3DMS
 BY THE LINK-MT3DMS PACKAGE V6.3 AT TIME STEP   71, STRESS PERIOD    1

1
  VOLUMETRIC BUDGET FOR ENTIRE MODEL AT END OF TIME STEP 71 IN STRESS PERIOD   1
  ------------------------------------------------------------------------------

     CUMULATIVE VOLUMES      L**3       RATES FOR THIS TIME STEP      L**3/T
     ------------------                 ------------------------

           IN:                                      IN:
           ---                                      ---
             STORAGE =       32772.8242               STORAGE =       2.3604E-06
       CONSTANT HEAD =      562981.0620         CONSTANT HEAD =           0.1075
                 MNW =      594793.4380                   MNW =           0.1075

            TOTAL IN =     1190547.3800              TOTAL IN =           0.2150

          OUT:                                     OUT:
          ----                                     ----
             STORAGE =      128295.1090               STORAGE =       3.7494E-04
       CONSTANT HEAD =      467343.9690         CONSTANT HEAD =           0.1072
                 MNW =      594793.4380                   MNW =           0.1075

           TOTAL OUT =     1190432.5000             TOTAL OUT =           0.2150

            IN - OUT =         114.8086              IN - OUT =      -3.1739E-05

 PERCENT DISCREPANCY =           0.01     PERCENT DISCREPANCY =          -0.01






          TIME SUMMARY AT END OF TIME STEP  71 IN STRESS PERIOD    1
                    SECONDS     MINUTES      HOURS       DAYS        YEARS
                    -----------------------------------------------------------
   TIME STEP LENGTH 4.95181E+05  8253.0      137.55      5.7313     1.56914E-02
 STRESS PERIOD TIME 5.44072E+06  90679.      1511.3      62.971     0.17241    
         TOTAL TIME 5.44072E+06  90679.      1511.3      62.971     0.17241    
1
 
 SOLVING FOR HEAD 
     3 CALLS TO PCG ROUTINE FOR TIME STEP  72 IN STRESS PERIOD    1
     8 TOTAL ITERATIONS

 HEAD/DRAWDOWN PRINTOUT FLAG = 0     TOTAL BUDGET PRINTOUT FLAG = 1
 CELL-BY-CELL FLOW TERM FLAG = 0
 REUSING PREVIOUS VALUES OF IOFLG

 SAVING SATURATED THICKNESS AND FLOW TERMS ON UNIT  333 FOR MT3DMS
 BY THE LINK-MT3DMS PACKAGE V6.3 AT TIME STEP   72, STRESS PERIOD    1

1
  VOLUMETRIC BUDGET FOR ENTIRE MODEL AT END OF TIME STEP 72 IN STRESS PERIOD   1
  ------------------------------------------------------------------------------

     CUMULATIVE VOLUMES      L**3       RATES FOR THIS TIME STEP      L**3/T
     ------------------                 ------------------------

           IN:                                      IN:
           ---                                      ---
             STORAGE =       32775.7656               STORAGE =       5.3971E-06
       CONSTANT HEAD =      621528.8130         CONSTANT HEAD =           0.1075
                 MNW =      653307.0630                   MNW =           0.1074

            TOTAL IN =     1307611.6200              TOTAL IN =           0.2149

          OUT:                                     OUT:
          ----                                     ----
             STORAGE =      128415.4530               STORAGE =       2.2094E-04
       CONSTANT HEAD =      525776.8750         CONSTANT HEAD =           0.1073
                 MNW =      653307.0630                   MNW =           0.1074

           TOTAL OUT =     1307499.3800             TOTAL OUT =           0.2149

            IN - OUT =         112.2500              IN - OUT =      -4.6447E-06

 PERCENT DISCREPANCY =           0.01     PERCENT DISCREPANCY =           0.00






          TIME SUMMARY AT END OF TIME STEP  72 IN STRESS PERIOD    1
                    SECONDS     MINUTES      HOURS       DAYS        YEARS
                    -----------------------------------------------------------
   TIME STEP LENGTH 5.44700E+05  9078.3      151.31      6.3044     1.72605E-02
 STRESS PERIOD TIME 5.98542E+06  99757.      1662.6      69.276     0.18967    
         TOTAL TIME 5.98542E+06  99757.      1662.6      69.276     0.18967    
1
 
 SOLVING FOR HEAD 
     3 CALLS TO PCG ROUTINE FOR TIME STEP  73 IN STRESS PERIOD    1
     8 TOTAL ITERATIONS

 HEAD/DRAWDOWN PRINTOUT FLAG = 0     TOTAL BUDGET PRINTOUT FLAG = 1
 CELL-BY-CELL FLOW TERM FLAG = 0
 REUSING PREVIOUS VALUES OF IOFLG

 SAVING SATURATED THICKNESS AND FLOW TERMS ON UNIT  333 FOR MT3DMS
 BY THE LINK-MT3DMS PACKAGE V6.3 AT TIME STEP   73, STRESS PERIOD    1

1
  VOLUMETRIC BUDGET FOR ENTIRE MODEL AT END OF TIME STEP 73 IN STRESS PERIOD   1
  ------------------------------------------------------------------------------

     CUMULATIVE VOLUMES      L**3       RATES FOR THIS TIME STEP      L**3/T
     ------------------                 ------------------------

           IN:                                      IN:
           ---                                      ---
             STORAGE =       32775.7773               STORAGE =       1.7978E-08
       CONSTANT HEAD =      685926.3130         CONSTANT HEAD =           0.1075
                 MNW =      717672.5630                   MNW =           0.1074

            TOTAL IN =     1436374.6200              TOTAL IN =           0.2149

          OUT:                                     OUT:
          ----                                     ----
             STORAGE =      128487.1020               STORAGE =       1.1958E-04
       CONSTANT HEAD =      590101.9380         CONSTANT HEAD =           0.1074
                 MNW =      717672.5630                   MNW =           0.1074

           TOTAL OUT =     1436261.6200             TOTAL OUT =           0.2149

            IN - OUT =         113.0508              IN - OUT =       1.3134E-06

 PERCENT DISCREPANCY =           0.01     PERCENT DISCREPANCY =           0.00






          TIME SUMMARY AT END OF TIME STEP  73 IN STRESS PERIOD    1
                    SECONDS     MINUTES      HOURS       DAYS        YEARS
                    -----------------------------------------------------------
   TIME STEP LENGTH 5.99170E+05  9986.2      166.44      6.9348     1.89865E-02
 STRESS PERIOD TIME 6.58459E+06 1.09743E+05  1829.1      76.211     0.20865    
         TOTAL TIME 6.58459E+06 1.09743E+05  1829.1      76.211     0.20865    
1
 
 SOLVING FOR HEAD 
     3 CALLS TO PCG ROUTINE FOR TIME STEP  74 IN STRESS PERIOD    1
     7 TOTAL ITERATIONS

 HEAD/DRAWDOWN PRINTOUT FLAG = 0     TOTAL BUDGET PRINTOUT FLAG = 1
 CELL-BY-CELL FLOW TERM FLAG = 0
 REUSING PREVIOUS VALUES OF IOFLG

 SAVING SATURATED THICKNESS AND FLOW TERMS ON UNIT  333 FOR MT3DMS
 BY THE LINK-MT3DMS PACKAGE V6.3 AT TIME STEP   74, STRESS PERIOD    1

1
  VOLUMETRIC BUDGET FOR ENTIRE MODEL AT END OF TIME STEP 74 IN STRESS PERIOD   1
  ------------------------------------------------------------------------------

     CUMULATIVE VOLUMES      L**3       RATES FOR THIS TIME STEP      L**3/T
     ------------------                 ------------------------

           IN:                                      IN:
           ---                                      ---
             STORAGE =       32775.7773               STORAGE =       4.9651E-10
       CONSTANT HEAD =      756753.6250         CONSTANT HEAD =           0.1075
                 MNW =      788473.7500                   MNW =           0.1074

            TOTAL IN =     1578003.1200              TOTAL IN =           0.2149

          OUT:                                     OUT:
          ----                                     ----
             STORAGE =      128523.5230               STORAGE =       5.5261E-05
       CONSTANT HEAD =      660890.3750         CONSTANT HEAD =           0.1074
                 MNW =      788473.7500                   MNW =           0.1074

           TOTAL OUT =     1577887.6200             TOTAL OUT =           0.2149

            IN - OUT =         115.5039              IN - OUT =       3.7107E-06

 PERCENT DISCREPANCY =           0.01     PERCENT DISCREPANCY =           0.00






          TIME SUMMARY AT END OF TIME STEP  74 IN STRESS PERIOD    1
                    SECONDS     MINUTES      HOURS       DAYS        YEARS
                    -----------------------------------------------------------
   TIME STEP LENGTH 6.59087E+05  10985.      183.08      7.6283     2.08852E-02
 STRESS PERIOD TIME 7.24368E+06 1.20728E+05  2012.1      83.839     0.22954    
         TOTAL TIME 7.24368E+06 1.20728E+05  2012.1      83.839     0.22954    
1
 
 SOLVING FOR HEAD 
     1 CALLS TO PCG ROUTINE FOR TIME STEP  75 IN STRESS PERIOD    1
     1 TOTAL ITERATIONS

 HEAD/DRAWDOWN PRINTOUT FLAG = 0     TOTAL BUDGET PRINTOUT FLAG = 1
 CELL-BY-CELL FLOW TERM FLAG = 0
 REUSING PREVIOUS VALUES OF IOFLG

 SAVING SATURATED THICKNESS AND FLOW TERMS ON UNIT  333 FOR MT3DMS
 BY THE LINK-MT3DMS PACKAGE V6.3 AT TIME STEP   75, STRESS PERIOD    1

1
  VOLUMETRIC BUDGET FOR ENTIRE MODEL AT END OF TIME STEP 75 IN STRESS PERIOD   1
  ------------------------------------------------------------------------------

     CUMULATIVE VOLUMES      L**3       RATES FOR THIS TIME STEP      L**3/T
     ------------------                 ------------------------

           IN:                                      IN:
           ---                                      ---
             STORAGE =       32776.1172               STORAGE =       4.6831E-07
       CONSTANT HEAD =      834662.6880         CONSTANT HEAD =           0.1075
                 MNW =      866374.6250                   MNW =           0.1075

            TOTAL IN =     1733813.3800              TOTAL IN =           0.2149

          OUT:                                     OUT:
          ----                                     ----
             STORAGE =      128524.8360               STORAGE =       1.8124E-06
       CONSTANT HEAD =      738758.5630         CONSTANT HEAD =           0.1074
                 MNW =      866374.6250                   MNW =           0.1075

           TOTAL OUT =     1733658.0000             TOTAL OUT =           0.2149

            IN - OUT =         155.4062              IN - OUT =       5.5102E-05

 PERCENT DISCREPANCY =           0.01     PERCENT DISCREPANCY =           0.03






          TIME SUMMARY AT END OF TIME STEP  75 IN STRESS PERIOD    1
                    SECONDS     MINUTES      HOURS       DAYS        YEARS
                    -----------------------------------------------------------
   TIME STEP LENGTH 7.24995E+05  12083.      201.39      8.3911     2.29737E-02
 STRESS PERIOD TIME 7.96868E+06 1.32811E+05  2213.5      92.230     0.25251    
         TOTAL TIME 7.96868E+06 1.32811E+05  2213.5      92.230     0.25251    
1
 
 SOLVING FOR HEAD 
     6 CALLS TO PCG ROUTINE FOR TIME STEP  76 IN STRESS PERIOD    1
    17 TOTAL ITERATIONS

 HEAD/DRAWDOWN PRINTOUT FLAG = 0     TOTAL BUDGET PRINTOUT FLAG = 1
 CELL-BY-CELL FLOW TERM FLAG = 0
 REUSING PREVIOUS VALUES OF IOFLG

 SAVING SATURATED THICKNESS AND FLOW TERMS ON UNIT  333 FOR MT3DMS
 BY THE LINK-MT3DMS PACKAGE V6.3 AT TIME STEP   76, STRESS PERIOD    1

1
  VOLUMETRIC BUDGET FOR ENTIRE MODEL AT END OF TIME STEP 76 IN STRESS PERIOD   1
  ------------------------------------------------------------------------------

     CUMULATIVE VOLUMES      L**3       RATES FOR THIS TIME STEP      L**3/T
     ------------------                 ------------------------

           IN:                                      IN:
           ---                                      ---
             STORAGE =       32776.7539               STORAGE =       7.9793E-07
       CONSTANT HEAD =      920351.1250         CONSTANT HEAD =           0.1074
                 MNW =      952188.4380                   MNW =           0.1076

            TOTAL IN =     1905316.3800              TOTAL IN =           0.2151

          OUT:                                     OUT:
          ----                                     ----
             STORAGE =      128541.9450               STORAGE =       2.1457E-05
       CONSTANT HEAD =      824437.1250         CONSTANT HEAD =           0.1074
                 MNW =      952188.4380                   MNW =           0.1076

           TOTAL OUT =     1905167.5000             TOTAL OUT =           0.2151

            IN - OUT =         148.8086              IN - OUT =      -8.2691E-06

 PERCENT DISCREPANCY =           0.01     PERCENT DISCREPANCY =           0.00






          TIME SUMMARY AT END OF TIME STEP  76 IN STRESS PERIOD    1
                    SECONDS     MINUTES      HOURS       DAYS        YEARS
                    -----------------------------------------------------------
   TIME STEP LENGTH 7.97495E+05  13292.      221.53      9.2303     2.52711E-02
 STRESS PERIOD TIME 8.76617E+06 1.46103E+05  2435.0      101.46     0.27778    
         TOTAL TIME 8.76617E+06 1.46103E+05  2435.0      101.46     0.27778    
1
 
 SOLVING FOR HEAD 
     3 CALLS TO PCG ROUTINE FOR TIME STEP  77 IN STRESS PERIOD    1
    11 TOTAL ITERATIONS

 HEAD/DRAWDOWN PRINTOUT FLAG = 0     TOTAL BUDGET PRINTOUT FLAG = 1
 CELL-BY-CELL FLOW TERM FLAG = 0
 REUSING PREVIOUS VALUES OF IOFLG

 SAVING SATURATED THICKNESS AND FLOW TERMS ON UNIT  333 FOR MT3DMS
 BY THE LINK-MT3DMS PACKAGE V6.3 AT TIME STEP   77, STRESS PERIOD    1

1
  VOLUMETRIC BUDGET FOR ENTIRE MODEL AT END OF TIME STEP 77 IN STRESS PERIOD   1
  ------------------------------------------------------------------------------

     CUMULATIVE VOLUMES      L**3       RATES FOR THIS TIME STEP      L**3/T
     ------------------                 ------------------------

           IN:                                      IN:
           ---                                      ---
             STORAGE =       32781.4766               STORAGE =       5.3834E-06
       CONSTANT HEAD =     1014645.1200         CONSTANT HEAD =           0.1075
                 MNW =     1046417.3100                   MNW =           0.1074

            TOTAL IN =     2093843.8800              TOTAL IN =           0.2149

          OUT:                                     OUT:
          ----                                     ----
             STORAGE =      128577.0700               STORAGE =       4.0039E-05
       CONSTANT HEAD =      918721.9380         CONSTANT HEAD =           0.1075
                 MNW =     1046417.3100                   MNW =           0.1074

           TOTAL OUT =     2093716.3800             TOTAL OUT =           0.2149

            IN - OUT =         127.5938              IN - OUT =      -2.4127E-05

 PERCENT DISCREPANCY =           0.01     PERCENT DISCREPANCY =          -0.01






          TIME SUMMARY AT END OF TIME STEP  77 IN STRESS PERIOD    1
                    SECONDS     MINUTES      HOURS       DAYS        YEARS
                    -----------------------------------------------------------
   TIME STEP LENGTH 8.77244E+05  14621.      243.68      10.153     2.77982E-02
 STRESS PERIOD TIME 9.64342E+06 1.60724E+05  2678.7      111.61     0.30558    
         TOTAL TIME 9.64342E+06 1.60724E+05  2678.7      111.61     0.30558    
1
 
 SOLVING FOR HEAD 
     1 CALLS TO PCG ROUTINE FOR TIME STEP  78 IN STRESS PERIOD    1
     1 TOTAL ITERATIONS

 HEAD/DRAWDOWN PRINTOUT FLAG = 0     TOTAL BUDGET PRINTOUT FLAG = 1
 CELL-BY-CELL FLOW TERM FLAG = 0
 REUSING PREVIOUS VALUES OF IOFLG

 SAVING SATURATED THICKNESS AND FLOW TERMS ON UNIT  333 FOR MT3DMS
 BY THE LINK-MT3DMS PACKAGE V6.3 AT TIME STEP   78, STRESS PERIOD    1

1
  VOLUMETRIC BUDGET FOR ENTIRE MODEL AT END OF TIME STEP 78 IN STRESS PERIOD   1
  ------------------------------------------------------------------------------

     CUMULATIVE VOLUMES      L**3       RATES FOR THIS TIME STEP      L**3/T
     ------------------                 ------------------------

           IN:                                      IN:
           ---                                      ---
             STORAGE =       32784.0078               STORAGE =       2.6225E-06
       CONSTANT HEAD =     1118364.2500         CONSTANT HEAD =           0.1075
                 MNW =     1150078.0000                   MNW =           0.1074

            TOTAL IN =     2301226.2500              TOTAL IN =           0.2149

          OUT:                                     OUT:
          ----                                     ----
             STORAGE =      128578.2030               STORAGE =       1.1773E-06
       CONSTANT HEAD =     1022433.3800         CONSTANT HEAD =           0.1075
                 MNW =     1150078.0000                   MNW =           0.1074

           TOTAL OUT =     2301089.5000             TOTAL OUT =           0.2149

            IN - OUT =         136.6797              IN - OUT =       9.4546E-06

 PERCENT DISCREPANCY =           0.01     PERCENT DISCREPANCY =           0.00






          TIME SUMMARY AT END OF TIME STEP  78 IN STRESS PERIOD    1
                    SECONDS     MINUTES      HOURS       DAYS        YEARS
                    -----------------------------------------------------------
   TIME STEP LENGTH 9.64969E+05  16083.      268.05      11.169     3.05780E-02
 STRESS PERIOD TIME 1.06084E+07 1.76806E+05  2946.8      122.78     0.33616    
         TOTAL TIME 1.06084E+07 1.76806E+05  2946.8      122.78     0.33616    
1
 
 SOLVING FOR HEAD 
     3 CALLS TO PCG ROUTINE FOR TIME STEP  79 IN STRESS PERIOD    1
     8 TOTAL ITERATIONS

 HEAD/DRAWDOWN PRINTOUT FLAG = 0     TOTAL BUDGET PRINTOUT FLAG = 1
 CELL-BY-CELL FLOW TERM FLAG = 0
 REUSING PREVIOUS VALUES OF IOFLG

 SAVING SATURATED THICKNESS AND FLOW TERMS ON UNIT  333 FOR MT3DMS
 BY THE LINK-MT3DMS PACKAGE V6.3 AT TIME STEP   79, STRESS PERIOD    1

1
  VOLUMETRIC BUDGET FOR ENTIRE MODEL AT END OF TIME STEP 79 IN STRESS PERIOD   1
  ------------------------------------------------------------------------------

     CUMULATIVE VOLUMES      L**3       RATES FOR THIS TIME STEP      L**3/T
     ------------------                 ------------------------

           IN:                                      IN:
           ---                                      ---
             STORAGE =       32817.6406               STORAGE =       3.1684E-05
       CONSTANT HEAD =     1232379.7500         CONSTANT HEAD =           0.1074
                 MNW =     1264142.1200                   MNW =           0.1075

            TOTAL IN =     2529339.5000              TOTAL IN =           0.2149

          OUT:                                     OUT:
          ----                                     ----
             STORAGE =      128585.9450               STORAGE =       7.2960E-06
       CONSTANT HEAD =     1136469.6200         CONSTANT HEAD =           0.1074
                 MNW =     1264142.1200                   MNW =           0.1075

           TOTAL OUT =     2529197.7500             TOTAL OUT =           0.2149

            IN - OUT =         141.8203              IN - OUT =       4.7637E-06

 PERCENT DISCREPANCY =           0.01     PERCENT DISCREPANCY =           0.00






          TIME SUMMARY AT END OF TIME STEP  79 IN STRESS PERIOD    1
                    SECONDS     MINUTES      HOURS       DAYS        YEARS
                    -----------------------------------------------------------
   TIME STEP LENGTH 1.06147E+06  17691.      294.85      12.285     3.36358E-02
 STRESS PERIOD TIME 1.16698E+07 1.94498E+05  3241.6      135.07     0.36980    
         TOTAL TIME 1.16698E+07 1.94498E+05  3241.6      135.07     0.36980    
1
 
 SOLVING FOR HEAD 
     1 CALLS TO PCG ROUTINE FOR TIME STEP  80 IN STRESS PERIOD    1
     1 TOTAL ITERATIONS

 HEAD/DRAWDOWN PRINTOUT FLAG = 0     TOTAL BUDGET PRINTOUT FLAG = 1
 CELL-BY-CELL FLOW TERM FLAG = 0
 REUSING PREVIOUS VALUES OF IOFLG

 SAVING SATURATED THICKNESS AND FLOW TERMS ON UNIT  333 FOR MT3DMS
 BY THE LINK-MT3DMS PACKAGE V6.3 AT TIME STEP   80, STRESS PERIOD    1

1
  VOLUMETRIC BUDGET FOR ENTIRE MODEL AT END OF TIME STEP 80 IN STRESS PERIOD   1
  ------------------------------------------------------------------------------

     CUMULATIVE VOLUMES      L**3       RATES FOR THIS TIME STEP      L**3/T
     ------------------                 ------------------------

           IN:                                      IN:
           ---                                      ---
             STORAGE =       32818.3711               STORAGE =       6.2655E-07
       CONSTANT HEAD =     1357801.7500         CONSTANT HEAD =           0.1074
                 MNW =     1389612.6200                   MNW =           0.1075

            TOTAL IN =     2780232.7500              TOTAL IN =           0.2149

          OUT:                                     OUT:
          ----                                     ----
             STORAGE =      128587.3520               STORAGE =       1.2059E-06
       CONSTANT HEAD =     1261909.8800         CONSTANT HEAD =           0.1074
                 MNW =     1389612.6200                   MNW =           0.1075

           TOTAL OUT =     2780109.7500             TOTAL OUT =           0.2149

            IN - OUT =         122.8945              IN - OUT =      -1.6196E-05

 PERCENT DISCREPANCY =           0.00     PERCENT DISCREPANCY =          -0.01






          TIME SUMMARY AT END OF TIME STEP  80 IN STRESS PERIOD    1
                    SECONDS     MINUTES      HOURS       DAYS        YEARS
                    -----------------------------------------------------------
   TIME STEP LENGTH 1.16761E+06  19460.      324.34      13.514     3.69994E-02
 STRESS PERIOD TIME 1.28375E+07 2.13958E+05  3566.0      148.58     0.40679    
         TOTAL TIME 1.28375E+07 2.13958E+05  3566.0      148.58     0.40679    
1
 
 SOLVING FOR HEAD 
     1 CALLS TO PCG ROUTINE FOR TIME STEP  81 IN STRESS PERIOD    1
     1 TOTAL ITERATIONS

 HEAD/DRAWDOWN PRINTOUT FLAG = 0     TOTAL BUDGET PRINTOUT FLAG = 1
 CELL-BY-CELL FLOW TERM FLAG = 0
 REUSING PREVIOUS VALUES OF IOFLG

 SAVING SATURATED THICKNESS AND FLOW TERMS ON UNIT  333 FOR MT3DMS
 BY THE LINK-MT3DMS PACKAGE V6.3 AT TIME STEP   81, STRESS PERIOD    1

1
  VOLUMETRIC BUDGET FOR ENTIRE MODEL AT END OF TIME STEP 81 IN STRESS PERIOD   1
  ------------------------------------------------------------------------------

     CUMULATIVE VOLUMES      L**3       RATES FOR THIS TIME STEP      L**3/T
     ------------------                 ------------------------

           IN:                                      IN:
           ---                                      ---
             STORAGE =       32818.9570               STORAGE =       4.5766E-07
       CONSTANT HEAD =     1495769.5000         CONSTANT HEAD =           0.1074
                 MNW =     1527616.6200                   MNW =           0.1074

            TOTAL IN =     3056205.0000              TOTAL IN =           0.2149

          OUT:                                     OUT:
          ----                                     ----
             STORAGE =      128588.3830               STORAGE =       8.0023E-07
       CONSTANT HEAD =     1399894.5000         CONSTANT HEAD =           0.1074
                 MNW =     1527616.6200                   MNW =           0.1074

           TOTAL OUT =     3056099.5000             TOTAL OUT =           0.2149

            IN - OUT =         105.5742              IN - OUT =      -1.3470E-05

 PERCENT DISCREPANCY =           0.00     PERCENT DISCREPANCY =          -0.01






          TIME SUMMARY AT END OF TIME STEP  81 IN STRESS PERIOD    1
                    SECONDS     MINUTES      HOURS       DAYS        YEARS
                    -----------------------------------------------------------
   TIME STEP LENGTH 1.28437E+06  21406.      356.77      14.865     4.06993E-02
 STRESS PERIOD TIME 1.41218E+07 2.35364E+05  3922.7      163.45     0.44749    
         TOTAL TIME 1.41218E+07 2.35364E+05  3922.7      163.45     0.44749    
1
 
 SOLVING FOR HEAD 
     3 CALLS TO PCG ROUTINE FOR TIME STEP  82 IN STRESS PERIOD    1
     8 TOTAL ITERATIONS

 HEAD/DRAWDOWN PRINTOUT FLAG = 0     TOTAL BUDGET PRINTOUT FLAG = 1
 CELL-BY-CELL FLOW TERM FLAG = 0
 REUSING PREVIOUS VALUES OF IOFLG

 SAVING SATURATED THICKNESS AND FLOW TERMS ON UNIT  333 FOR MT3DMS
 BY THE LINK-MT3DMS PACKAGE V6.3 AT TIME STEP   82, STRESS PERIOD    1

1
  VOLUMETRIC BUDGET FOR ENTIRE MODEL AT END OF TIME STEP 82 IN STRESS PERIOD   1
  ------------------------------------------------------------------------------

     CUMULATIVE VOLUMES      L**3       RATES FOR THIS TIME STEP      L**3/T
     ------------------                 ------------------------

           IN:                                      IN:
           ---                                      ---
             STORAGE =       32823.1172               STORAGE =       2.9450E-06
       CONSTANT HEAD =     1647584.2500         CONSTANT HEAD =           0.1075
                 MNW =     1679383.1200                   MNW =           0.1074

            TOTAL IN =     3359790.5000              TOTAL IN =           0.2149

          OUT:                                     OUT:
          ----                                     ----
             STORAGE =      128604.6170               STORAGE =       1.1493E-05
       CONSTANT HEAD =     1551708.3800         CONSTANT HEAD =           0.1075
                 MNW =     1679383.1200                   MNW =           0.1074

           TOTAL OUT =     3359696.0000             TOTAL OUT =           0.2149

            IN - OUT =          94.3750              IN - OUT =      -7.9441E-06

 PERCENT DISCREPANCY =           0.00     PERCENT DISCREPANCY =           0.00






          TIME SUMMARY AT END OF TIME STEP  82 IN STRESS PERIOD    1
                    SECONDS     MINUTES      HOURS       DAYS        YEARS
                    -----------------------------------------------------------
   TIME STEP LENGTH 1.41281E+06  23547.      392.45      16.352     4.47693E-02
 STRESS PERIOD TIME 1.55346E+07 2.58911E+05  4315.2      179.80     0.49226    
         TOTAL TIME 1.55346E+07 2.58911E+05  4315.2      179.80     0.49226    
1
 
 SOLVING FOR HEAD 
     2 CALLS TO PCG ROUTINE FOR TIME STEP  83 IN STRESS PERIOD    1
     3 TOTAL ITERATIONS

 HEAD/DRAWDOWN PRINTOUT FLAG = 0     TOTAL BUDGET PRINTOUT FLAG = 1
 CELL-BY-CELL FLOW TERM FLAG = 0
 REUSING PREVIOUS VALUES OF IOFLG

 SAVING SATURATED THICKNESS AND FLOW TERMS ON UNIT  333 FOR MT3DMS
 BY THE LINK-MT3DMS PACKAGE V6.3 AT TIME STEP   83, STRESS PERIOD    1

1
  VOLUMETRIC BUDGET FOR ENTIRE MODEL AT END OF TIME STEP 83 IN STRESS PERIOD   1
  ------------------------------------------------------------------------------

     CUMULATIVE VOLUMES      L**3       RATES FOR THIS TIME STEP      L**3/T
     ------------------                 ------------------------

           IN:                                      IN:
           ---                                      ---
             STORAGE =       32829.4023               STORAGE =       4.0438E-06
       CONSTANT HEAD =     1814577.5000         CONSTANT HEAD =           0.1075
                 MNW =     1846002.1200                   MNW =           0.1072

            TOTAL IN =     3693409.0000              TOTAL IN =           0.2147

          OUT:                                     OUT:
          ----                                     ----
             STORAGE =      128611.2580               STORAGE =       4.2712E-06
       CONSTANT HEAD =     1718696.6200         CONSTANT HEAD =           0.1075
                 MNW =     1846002.1200                   MNW =           0.1072

           TOTAL OUT =     3693310.0000             TOTAL OUT =           0.2147

            IN - OUT =          99.0195              IN - OUT =       2.9317E-06

 PERCENT DISCREPANCY =           0.00     PERCENT DISCREPANCY =           0.00






          TIME SUMMARY AT END OF TIME STEP  83 IN STRESS PERIOD    1
                    SECONDS     MINUTES      HOURS       DAYS        YEARS
                    -----------------------------------------------------------
   TIME STEP LENGTH 1.55409E+06  25902.      431.69      17.987     4.92462E-02
 STRESS PERIOD TIME 1.70887E+07 2.84812E+05  4746.9      197.79     0.54151    
         TOTAL TIME 1.70887E+07 2.84812E+05  4746.9      197.79     0.54151    
1
 
 SOLVING FOR HEAD 
     3 CALLS TO PCG ROUTINE FOR TIME STEP  84 IN STRESS PERIOD    1
    11 TOTAL ITERATIONS

 HEAD/DRAWDOWN PRINTOUT FLAG = 0     TOTAL BUDGET PRINTOUT FLAG = 1
 CELL-BY-CELL FLOW TERM FLAG = 0
 REUSING PREVIOUS VALUES OF IOFLG

 SAVING SATURATED THICKNESS AND FLOW TERMS ON UNIT  333 FOR MT3DMS
 BY THE LINK-MT3DMS PACKAGE V6.3 AT TIME STEP   84, STRESS PERIOD    1

1
  VOLUMETRIC BUDGET FOR ENTIRE MODEL AT END OF TIME STEP 84 IN STRESS PERIOD   1
  ------------------------------------------------------------------------------

     CUMULATIVE VOLUMES      L**3       RATES FOR THIS TIME STEP      L**3/T
     ------------------                 ------------------------

           IN:                                      IN:
           ---                                      ---
             STORAGE =       32871.7266               STORAGE =       2.4758E-05
       CONSTANT HEAD =     1998164.8800         CONSTANT HEAD =           0.1074
                 MNW =     2029725.8800                   MNW =           0.1075

            TOTAL IN =     4060762.5000              TOTAL IN =           0.2149

          OUT:                                     OUT:
          ----                                     ----
             STORAGE =      128617.6640               STORAGE =       3.7492E-06
       CONSTANT HEAD =     1902261.5000         CONSTANT HEAD =           0.1074
                 MNW =     2029725.8800                   MNW =           0.1075

           TOTAL OUT =     4060605.0000             TOTAL OUT =           0.2149

            IN - OUT =         157.4375              IN - OUT =       3.4144E-05

 PERCENT DISCREPANCY =           0.00     PERCENT DISCREPANCY =           0.02






          TIME SUMMARY AT END OF TIME STEP  84 IN STRESS PERIOD    1
                    SECONDS     MINUTES      HOURS       DAYS        YEARS
                    -----------------------------------------------------------
   TIME STEP LENGTH 1.70950E+06  28492.      474.86      19.786     5.41708E-02
 STRESS PERIOD TIME 1.87982E+07 3.13304E+05  5221.7      217.57     0.59568    
         TOTAL TIME 1.87982E+07 3.13304E+05  5221.7      217.57     0.59568    
1
 
 SOLVING FOR HEAD 
     1 CALLS TO PCG ROUTINE FOR TIME STEP  85 IN STRESS PERIOD    1
     1 TOTAL ITERATIONS

 HEAD/DRAWDOWN PRINTOUT FLAG = 0     TOTAL BUDGET PRINTOUT FLAG = 1
 CELL-BY-CELL FLOW TERM FLAG = 0
 REUSING PREVIOUS VALUES OF IOFLG

 SAVING SATURATED THICKNESS AND FLOW TERMS ON UNIT  333 FOR MT3DMS
 BY THE LINK-MT3DMS PACKAGE V6.3 AT TIME STEP   85, STRESS PERIOD    1

1
  VOLUMETRIC BUDGET FOR ENTIRE MODEL AT END OF TIME STEP 85 IN STRESS PERIOD   1
  ------------------------------------------------------------------------------

     CUMULATIVE VOLUMES      L**3       RATES FOR THIS TIME STEP      L**3/T
     ------------------                 ------------------------

           IN:                                      IN:
           ---                                      ---
             STORAGE =       32873.0391               STORAGE =       6.9858E-07
       CONSTANT HEAD =     2200120.7500         CONSTANT HEAD =           0.1074
                 MNW =     2231803.2500                   MNW =           0.1075

            TOTAL IN =     4464797.0000              TOTAL IN =           0.2149

          OUT:                                     OUT:
          ----                                     ----
             STORAGE =      128621.8830               STORAGE =       2.2424E-06
       CONSTANT HEAD =     2104192.2500         CONSTANT HEAD =           0.1074
                 MNW =     2231803.2500                   MNW =           0.1075

           TOTAL OUT =     4464617.5000             TOTAL OUT =           0.2148

            IN - OUT =         179.6562              IN - OUT =       1.1793E-05

 PERCENT DISCREPANCY =           0.00     PERCENT DISCREPANCY =           0.01






          TIME SUMMARY AT END OF TIME STEP  85 IN STRESS PERIOD    1
                    SECONDS     MINUTES      HOURS       DAYS        YEARS
                    -----------------------------------------------------------
   TIME STEP LENGTH 1.88045E+06  31341.      522.35      21.764     5.95879E-02
 STRESS PERIOD TIME 2.06787E+07 3.44645E+05  5744.1      239.34     0.65527    
         TOTAL TIME 2.06787E+07 3.44645E+05  5744.1      239.34     0.65527    
1
 
 SOLVING FOR HEAD 
     3 CALLS TO PCG ROUTINE FOR TIME STEP  86 IN STRESS PERIOD    1
     8 TOTAL ITERATIONS

 HEAD/DRAWDOWN PRINTOUT FLAG = 0     TOTAL BUDGET PRINTOUT FLAG = 1
 CELL-BY-CELL FLOW TERM FLAG = 0
 REUSING PREVIOUS VALUES OF IOFLG

 SAVING SATURATED THICKNESS AND FLOW TERMS ON UNIT  333 FOR MT3DMS
 BY THE LINK-MT3DMS PACKAGE V6.3 AT TIME STEP   86, STRESS PERIOD    1

1
  VOLUMETRIC BUDGET FOR ENTIRE MODEL AT END OF TIME STEP 86 IN STRESS PERIOD   1
  ------------------------------------------------------------------------------

     CUMULATIVE VOLUMES      L**3       RATES FOR THIS TIME STEP      L**3/T
     ------------------                 ------------------------

           IN:                                      IN:
           ---                                      ---
             STORAGE =       32883.8477               STORAGE =       5.2260E-06
       CONSTANT HEAD =     2422430.5000         CONSTANT HEAD =           0.1075
                 MNW =     2453996.0000                   MNW =           0.1074

            TOTAL IN =     4909310.5000              TOTAL IN =           0.2149

          OUT:                                     OUT:
          ----                                     ----
             STORAGE =      128662.5310               STORAGE =       1.9652E-05
       CONSTANT HEAD =     2326478.2500         CONSTANT HEAD =           0.1075
                 MNW =     2453996.0000                   MNW =           0.1074

           TOTAL OUT =     4909137.0000             TOTAL OUT =           0.2149

            IN - OUT =         173.5664              IN - OUT =      -2.9218E-06

 PERCENT DISCREPANCY =           0.00     PERCENT DISCREPANCY =           0.00






          TIME SUMMARY AT END OF TIME STEP  86 IN STRESS PERIOD    1
                    SECONDS     MINUTES      HOURS       DAYS        YEARS
                    -----------------------------------------------------------
   TIME STEP LENGTH 2.06850E+06  34475.      574.58      23.941     6.55467E-02
 STRESS PERIOD TIME 2.27472E+07 3.79120E+05  6318.7      263.28     0.72082    
         TOTAL TIME 2.27472E+07 3.79120E+05  6318.7      263.28     0.72082    
1
 
 SOLVING FOR HEAD 
     1 CALLS TO PCG ROUTINE FOR TIME STEP  87 IN STRESS PERIOD    1
     1 TOTAL ITERATIONS

 HEAD/DRAWDOWN PRINTOUT FLAG = 0     TOTAL BUDGET PRINTOUT FLAG = 1
 CELL-BY-CELL FLOW TERM FLAG = 0
 REUSING PREVIOUS VALUES OF IOFLG

 SAVING SATURATED THICKNESS AND FLOW TERMS ON UNIT  333 FOR MT3DMS
 BY THE LINK-MT3DMS PACKAGE V6.3 AT TIME STEP   87, STRESS PERIOD    1

1
  VOLUMETRIC BUDGET FOR ENTIRE MODEL AT END OF TIME STEP 87 IN STRESS PERIOD   1
  ------------------------------------------------------------------------------

     CUMULATIVE VOLUMES      L**3       RATES FOR THIS TIME STEP      L**3/T
     ------------------                 ------------------------

           IN:                                      IN:
           ---                                      ---
             STORAGE =       32886.1289               STORAGE =       1.0028E-06
       CONSTANT HEAD =     2666958.0000         CONSTANT HEAD =           0.1075
                 MNW =     2698414.5000                   MNW =           0.1074

            TOTAL IN =     5398258.5000              TOTAL IN =           0.2149

          OUT:                                     OUT:
          ----                                     ----
             STORAGE =      128663.4770               STORAGE =       4.1393E-07
       CONSTANT HEAD =     2570988.2500         CONSTANT HEAD =           0.1075
                 MNW =     2698414.5000                   MNW =           0.1074

           TOTAL OUT =     5398066.0000             TOTAL OUT =           0.2149

            IN - OUT =         192.4023              IN - OUT =       8.3300E-06

 PERCENT DISCREPANCY =           0.00     PERCENT DISCREPANCY =           0.00






          TIME SUMMARY AT END OF TIME STEP  87 IN STRESS PERIOD    1
                    SECONDS     MINUTES      HOURS       DAYS        YEARS
                    -----------------------------------------------------------
   TIME STEP LENGTH 2.27535E+06  37922.      632.04      26.335     7.21014E-02
 STRESS PERIOD TIME 2.50225E+07 4.17042E+05  6950.7      289.61     0.79292    
         TOTAL TIME 2.50225E+07 4.17042E+05  6950.7      289.61     0.79292    
1
 
 SOLVING FOR HEAD 
     1 CALLS TO PCG ROUTINE FOR TIME STEP  88 IN STRESS PERIOD    1
     1 TOTAL ITERATIONS

 HEAD/DRAWDOWN PRINTOUT FLAG = 0     TOTAL BUDGET PRINTOUT FLAG = 1
 CELL-BY-CELL FLOW TERM FLAG = 0
 REUSING PREVIOUS VALUES OF IOFLG

 SAVING SATURATED THICKNESS AND FLOW TERMS ON UNIT  333 FOR MT3DMS
 BY THE LINK-MT3DMS PACKAGE V6.3 AT TIME STEP   88, STRESS PERIOD    1

1
  VOLUMETRIC BUDGET FOR ENTIRE MODEL AT END OF TIME STEP 88 IN STRESS PERIOD   1
  ------------------------------------------------------------------------------

     CUMULATIVE VOLUMES      L**3       RATES FOR THIS TIME STEP      L**3/T
     ------------------                 ------------------------

           IN:                                      IN:
           ---                                      ---
             STORAGE =       32888.5703               STORAGE =       9.7504E-07
       CONSTANT HEAD =     2935925.0000         CONSTANT HEAD =           0.1075
                 MNW =     2967272.5000                   MNW =           0.1074

            TOTAL IN =     5936086.0000              TOTAL IN =           0.2149

          OUT:                                     OUT:
          ----                                     ----
             STORAGE =      128664.3360               STORAGE =       3.4241E-07
       CONSTANT HEAD =     2839943.0000         CONSTANT HEAD =           0.1075
                 MNW =     2967272.5000                   MNW =           0.1074

           TOTAL OUT =     5935880.0000             TOTAL OUT =           0.2149

            IN - OUT =         206.2344              IN - OUT =       5.4979E-06

 PERCENT DISCREPANCY =           0.00     PERCENT DISCREPANCY =           0.00






          TIME SUMMARY AT END OF TIME STEP  88 IN STRESS PERIOD    1
                    SECONDS     MINUTES      HOURS       DAYS        YEARS
                    -----------------------------------------------------------
   TIME STEP LENGTH 2.50288E+06  41715.      695.24      28.969     7.93115E-02
 STRESS PERIOD TIME 2.75254E+07 4.58757E+05  7645.9      318.58     0.87223    
         TOTAL TIME 2.75254E+07 4.58757E+05  7645.9      318.58     0.87223    
1
 
 SOLVING FOR HEAD 
     2 CALLS TO PCG ROUTINE FOR TIME STEP  89 IN STRESS PERIOD    1
     3 TOTAL ITERATIONS

 HEAD/DRAWDOWN PRINTOUT FLAG = 0     TOTAL BUDGET PRINTOUT FLAG = 1
 CELL-BY-CELL FLOW TERM FLAG = 0
 REUSING PREVIOUS VALUES OF IOFLG

 SAVING SATURATED THICKNESS AND FLOW TERMS ON UNIT  333 FOR MT3DMS
 BY THE LINK-MT3DMS PACKAGE V6.3 AT TIME STEP   89, STRESS PERIOD    1

1
  VOLUMETRIC BUDGET FOR ENTIRE MODEL AT END OF TIME STEP 89 IN STRESS PERIOD   1
  ------------------------------------------------------------------------------

     CUMULATIVE VOLUMES      L**3       RATES FOR THIS TIME STEP      L**3/T
     ------------------                 ------------------------

           IN:                                      IN:
           ---                                      ---
             STORAGE =       32894.5352               STORAGE =       2.1664E-06
       CONSTANT HEAD =     3231774.0000         CONSTANT HEAD =           0.1075
                 MNW =     3262542.7500                   MNW =           0.1072

            TOTAL IN =     6527211.5000              TOTAL IN =           0.2147

          OUT:                                     OUT:
          ----                                     ----
             STORAGE =      128672.7030               STORAGE =       3.0390E-06
       CONSTANT HEAD =     3135777.2500         CONSTANT HEAD =           0.1075
                 MNW =     3262542.7500                   MNW =           0.1072

           TOTAL OUT =     6526992.5000             TOTAL OUT =           0.2147

            IN - OUT =         218.5820              IN - OUT =       4.4695E-06

 PERCENT DISCREPANCY =           0.00     PERCENT DISCREPANCY =           0.00






          TIME SUMMARY AT END OF TIME STEP  89 IN STRESS PERIOD    1
                    SECONDS     MINUTES      HOURS       DAYS        YEARS
                    -----------------------------------------------------------
   TIME STEP LENGTH 2.75317E+06  45886.      764.77      31.865     8.72427E-02
 STRESS PERIOD TIME 3.02786E+07 5.04643E+05  8410.7      350.45     0.95947    
         TOTAL TIME 3.02786E+07 5.04643E+05  8410.7      350.45     0.95947    
1
 
 SOLVING FOR HEAD 
     3 CALLS TO PCG ROUTINE FOR TIME STEP  90 IN STRESS PERIOD    1
    11 TOTAL ITERATIONS

 HEAD/DRAWDOWN PRINTOUT FLAG = 0     TOTAL BUDGET PRINTOUT FLAG = 1
 CELL-BY-CELL FLOW TERM FLAG = 0
 REUSING PREVIOUS VALUES OF IOFLG

 SAVING SATURATED THICKNESS AND FLOW TERMS ON UNIT  333 FOR MT3DMS
 BY THE LINK-MT3DMS PACKAGE V6.3 AT TIME STEP   90, STRESS PERIOD    1

1
  VOLUMETRIC BUDGET FOR ENTIRE MODEL AT END OF TIME STEP 90 IN STRESS PERIOD   1
  ------------------------------------------------------------------------------

     CUMULATIVE VOLUMES      L**3       RATES FOR THIS TIME STEP      L**3/T
     ------------------                 ------------------------

           IN:                                      IN:
           ---                                      ---
             STORAGE =       32922.9922               STORAGE =       9.3969E-06
       CONSTANT HEAD =     3557036.0000         CONSTANT HEAD =           0.1074
                 MNW =     3588009.0000                   MNW =           0.1075

            TOTAL IN =     7177968.0000              TOTAL IN =           0.2149

          OUT:                                     OUT:
          ----                                     ----
             STORAGE =      128682.7810               STORAGE =       3.3268E-06
       CONSTANT HEAD =     3460995.5000         CONSTANT HEAD =           0.1074
                 MNW =     3588009.0000                   MNW =           0.1075

           TOTAL OUT =     7177687.5000             TOTAL OUT =           0.2149

            IN - OUT =         280.7109              IN - OUT =       2.0524E-05

 PERCENT DISCREPANCY =           0.00     PERCENT DISCREPANCY =           0.01






          TIME SUMMARY AT END OF TIME STEP  90 IN STRESS PERIOD    1
                    SECONDS     MINUTES      HOURS       DAYS        YEARS
                    -----------------------------------------------------------
   TIME STEP LENGTH 3.02849E+06  50475.      841.25      35.052     9.59670E-02
 STRESS PERIOD TIME 3.33071E+07 5.55118E+05  9252.0      385.50      1.0554    
         TOTAL TIME 3.33071E+07 5.55118E+05  9252.0      385.50      1.0554    
1
 
 SOLVING FOR HEAD 
     1 CALLS TO PCG ROUTINE FOR TIME STEP  91 IN STRESS PERIOD    1
     1 TOTAL ITERATIONS

 HEAD/DRAWDOWN PRINTOUT FLAG = 0     TOTAL BUDGET PRINTOUT FLAG = 1
 CELL-BY-CELL FLOW TERM FLAG = 0
 REUSING PREVIOUS VALUES OF IOFLG

 SAVING SATURATED THICKNESS AND FLOW TERMS ON UNIT  333 FOR MT3DMS
 BY THE LINK-MT3DMS PACKAGE V6.3 AT TIME STEP   91, STRESS PERIOD    1

1
  VOLUMETRIC BUDGET FOR ENTIRE MODEL AT END OF TIME STEP 91 IN STRESS PERIOD   1
  ------------------------------------------------------------------------------

     CUMULATIVE VOLUMES      L**3       RATES FOR THIS TIME STEP      L**3/T
     ------------------                 ------------------------

           IN:                                      IN:
           ---                                      ---
             STORAGE =       32924.8516               STORAGE =       5.5856E-07
       CONSTANT HEAD =     3914840.7500         CONSTANT HEAD =           0.1074
                 MNW =     3945985.2500                   MNW =           0.1075

            TOTAL IN =     7893751.0000              TOTAL IN =           0.2149

          OUT:                                     OUT:
          ----                                     ----
             STORAGE =      128686.7500               STORAGE =       1.1905E-06
       CONSTANT HEAD =     3818752.5000         CONSTANT HEAD =           0.1074
                 MNW =     3945985.2500                   MNW =           0.1075

           TOTAL OUT =     7893424.5000             TOTAL OUT =           0.2148

            IN - OUT =         326.3516              IN - OUT =       1.3725E-05

 PERCENT DISCREPANCY =           0.00     PERCENT DISCREPANCY =           0.01






          TIME SUMMARY AT END OF TIME STEP  91 IN STRESS PERIOD    1
                    SECONDS     MINUTES      HOURS       DAYS        YEARS
                    -----------------------------------------------------------
   TIME STEP LENGTH 3.33134E+06  55522.      925.37      38.557     0.10556    
 STRESS PERIOD TIME 3.66384E+07 6.10640E+05  10177.      424.06      1.1610    
         TOTAL TIME 3.66384E+07 6.10640E+05  10177.      424.06      1.1610    
1
 
 SOLVING FOR HEAD 
     3 CALLS TO PCG ROUTINE FOR TIME STEP  92 IN STRESS PERIOD    1
     8 TOTAL ITERATIONS

 HEAD/DRAWDOWN PRINTOUT FLAG = 0     TOTAL BUDGET PRINTOUT FLAG = 1
 CELL-BY-CELL FLOW TERM FLAG = 0
 REUSING PREVIOUS VALUES OF IOFLG

 SAVING SATURATED THICKNESS AND FLOW TERMS ON UNIT  333 FOR MT3DMS
 BY THE LINK-MT3DMS PACKAGE V6.3 AT TIME STEP   92, STRESS PERIOD    1

1
  VOLUMETRIC BUDGET FOR ENTIRE MODEL AT END OF TIME STEP 92 IN STRESS PERIOD   1
  ------------------------------------------------------------------------------

     CUMULATIVE VOLUMES      L**3       RATES FOR THIS TIME STEP      L**3/T
     ------------------                 ------------------------

           IN:                                      IN:
           ---                                      ---
             STORAGE =       32940.9883               STORAGE =       4.4034E-06
       CONSTANT HEAD =     4308674.5000         CONSTANT HEAD =           0.1075
                 MNW =     4339585.0000                   MNW =           0.1074

            TOTAL IN =     8681200.0000              TOTAL IN =           0.2149

          OUT:                                     OUT:
          ----                                     ----
             STORAGE =      128720.4450               STORAGE =       9.1947E-06
       CONSTANT HEAD =     4212594.5000         CONSTANT HEAD =           0.1075
                 MNW =     4339585.0000                   MNW =           0.1074

           TOTAL OUT =     8680900.0000             TOTAL OUT =           0.2149

            IN - OUT =         300.5430              IN - OUT =      -6.9371E-06

 PERCENT DISCREPANCY =           0.00     PERCENT DISCREPANCY =           0.00






          TIME SUMMARY AT END OF TIME STEP  92 IN STRESS PERIOD    1
                    SECONDS     MINUTES      HOURS       DAYS        YEARS
                    -----------------------------------------------------------
   TIME STEP LENGTH 3.66447E+06  61074.      1017.9      42.413     0.11612    
 STRESS PERIOD TIME 4.03029E+07 6.71715E+05  11195.      466.47      1.2771    
         TOTAL TIME 4.03029E+07 6.71715E+05  11195.      466.47      1.2771    
1
 
 SOLVING FOR HEAD 
     3 CALLS TO PCG ROUTINE FOR TIME STEP  93 IN STRESS PERIOD    1
     7 TOTAL ITERATIONS

 HEAD/DRAWDOWN PRINTOUT FLAG = 0     TOTAL BUDGET PRINTOUT FLAG = 1
 CELL-BY-CELL FLOW TERM FLAG = 0
 REUSING PREVIOUS VALUES OF IOFLG

 SAVING SATURATED THICKNESS AND FLOW TERMS ON UNIT  333 FOR MT3DMS
 BY THE LINK-MT3DMS PACKAGE V6.3 AT TIME STEP   93, STRESS PERIOD    1

1
  VOLUMETRIC BUDGET FOR ENTIRE MODEL AT END OF TIME STEP 93 IN STRESS PERIOD   1
  ------------------------------------------------------------------------------

     CUMULATIVE VOLUMES      L**3       RATES FOR THIS TIME STEP      L**3/T
     ------------------                 ------------------------

           IN:                                      IN:
           ---                                      ---
             STORAGE =       32948.2266               STORAGE =       1.7953E-06
       CONSTANT HEAD =     4741835.0000         CONSTANT HEAD =           0.1075
                 MNW =     4772594.0000                   MNW =           0.1074

            TOTAL IN =     9547377.0000              TOTAL IN =           0.2149

          OUT:                                     OUT:
          ----                                     ----
             STORAGE =      128729.4530               STORAGE =       2.2340E-06
       CONSTANT HEAD =     4645740.0000         CONSTANT HEAD =           0.1075
                 MNW =     4772594.0000                   MNW =           0.1074

           TOTAL OUT =     9547063.0000             TOTAL OUT =           0.2149

            IN - OUT =         313.7734              IN - OUT =       3.2792E-06

 PERCENT DISCREPANCY =           0.00     PERCENT DISCREPANCY =           0.00






          TIME SUMMARY AT END OF TIME STEP  93 IN STRESS PERIOD    1
                    SECONDS     MINUTES      HOURS       DAYS        YEARS
                    -----------------------------------------------------------
   TIME STEP LENGTH 4.03092E+06  67182.      1119.7      46.654     0.12773    
 STRESS PERIOD TIME 4.43338E+07 7.38897E+05  12315.      513.12      1.4049    
         TOTAL TIME 4.43338E+07 7.38897E+05  12315.      513.12      1.4049    
1
 
 SOLVING FOR HEAD 
     1 CALLS TO PCG ROUTINE FOR TIME STEP  94 IN STRESS PERIOD    1
     1 TOTAL ITERATIONS

 HEAD/DRAWDOWN PRINTOUT FLAG = 0     TOTAL BUDGET PRINTOUT FLAG = 1
 CELL-BY-CELL FLOW TERM FLAG = 0
 REUSING PREVIOUS VALUES OF IOFLG

 SAVING SATURATED THICKNESS AND FLOW TERMS ON UNIT  333 FOR MT3DMS
 BY THE LINK-MT3DMS PACKAGE V6.3 AT TIME STEP   94, STRESS PERIOD    1

1
  VOLUMETRIC BUDGET FOR ENTIRE MODEL AT END OF TIME STEP 94 IN STRESS PERIOD   1
  ------------------------------------------------------------------------------

     CUMULATIVE VOLUMES      L**3       RATES FOR THIS TIME STEP      L**3/T
     ------------------                 ------------------------

           IN:                                      IN:
           ---                                      ---
             STORAGE =       32950.5039               STORAGE =       5.1352E-07
       CONSTANT HEAD =     5218294.5000         CONSTANT HEAD =           0.1075
                 MNW =     5248957.5000                   MNW =           0.1074

            TOTAL IN =    10500203.0000              TOTAL IN =           0.2149

          OUT:                                     OUT:
          ----                                     ----
             STORAGE =      128730.5550               STORAGE =       2.4789E-07
       CONSTANT HEAD =     5122191.5000         CONSTANT HEAD =           0.1075
                 MNW =     5248957.5000                   MNW =           0.1074

           TOTAL OUT =    10499880.0000             TOTAL OUT =           0.2149

            IN - OUT =         322.9492              IN - OUT =       2.0165E-06

 PERCENT DISCREPANCY =           0.00     PERCENT DISCREPANCY =           0.00






          TIME SUMMARY AT END OF TIME STEP  94 IN STRESS PERIOD    1
                    SECONDS     MINUTES      HOURS       DAYS        YEARS
                    -----------------------------------------------------------
   TIME STEP LENGTH 4.43401E+06  73900.      1231.7      51.320     0.14051    
 STRESS PERIOD TIME 4.87678E+07 8.12797E+05  13547.      564.44      1.5454    
         TOTAL TIME 4.87678E+07 8.12797E+05  13547.      564.44      1.5454    
1
 
 SOLVING FOR HEAD 
     5 CALLS TO PCG ROUTINE FOR TIME STEP  95 IN STRESS PERIOD    1
    13 TOTAL ITERATIONS

 HEAD/DRAWDOWN PRINTOUT FLAG = 0     TOTAL BUDGET PRINTOUT FLAG = 1
 CELL-BY-CELL FLOW TERM FLAG = 0
 REUSING PREVIOUS VALUES OF IOFLG

 SAVING SATURATED THICKNESS AND FLOW TERMS ON UNIT  333 FOR MT3DMS
 BY THE LINK-MT3DMS PACKAGE V6.3 AT TIME STEP   95, STRESS PERIOD    1

1
  VOLUMETRIC BUDGET FOR ENTIRE MODEL AT END OF TIME STEP 95 IN STRESS PERIOD   1
  ------------------------------------------------------------------------------

     CUMULATIVE VOLUMES      L**3       RATES FOR THIS TIME STEP      L**3/T
     ------------------                 ------------------------

           IN:                                      IN:
           ---                                      ---
             STORAGE =       32957.2695               STORAGE =       1.3873E-06
       CONSTANT HEAD =     5742401.0000         CONSTANT HEAD =           0.1075
                 MNW =     5772898.5000                   MNW =           0.1074

            TOTAL IN =    11548257.0000              TOTAL IN =           0.2149

          OUT:                                     OUT:
          ----                                     ----
             STORAGE =      128734.9770               STORAGE =       9.0590E-07
       CONSTANT HEAD =     5646335.5000         CONSTANT HEAD =           0.1075
                 MNW =     5772898.5000                   MNW =           0.1074

           TOTAL OUT =    11547969.0000             TOTAL OUT =           0.2149

            IN - OUT =         287.7930              IN - OUT =      -7.1554E-06

 PERCENT DISCREPANCY =           0.00     PERCENT DISCREPANCY =           0.00






          TIME SUMMARY AT END OF TIME STEP  95 IN STRESS PERIOD    1
                    SECONDS     MINUTES      HOURS       DAYS        YEARS
                    -----------------------------------------------------------
   TIME STEP LENGTH 4.87741E+06  81290.      1354.8      56.451     0.15456    
 STRESS PERIOD TIME 5.36452E+07 8.94087E+05  14901.      620.89      1.6999    
         TOTAL TIME 5.36452E+07 8.94087E+05  14901.      620.89      1.6999    
1
 
 SOLVING FOR HEAD 
     1 CALLS TO PCG ROUTINE FOR TIME STEP  96 IN STRESS PERIOD    1
     1 TOTAL ITERATIONS

 HEAD/DRAWDOWN PRINTOUT FLAG = 0     TOTAL BUDGET PRINTOUT FLAG = 1
 CELL-BY-CELL FLOW TERM FLAG = 0
 REUSING PREVIOUS VALUES OF IOFLG

 SAVING SATURATED THICKNESS AND FLOW TERMS ON UNIT  333 FOR MT3DMS
 BY THE LINK-MT3DMS PACKAGE V6.3 AT TIME STEP   96, STRESS PERIOD    1

1
  VOLUMETRIC BUDGET FOR ENTIRE MODEL AT END OF TIME STEP 96 IN STRESS PERIOD   1
  ------------------------------------------------------------------------------

     CUMULATIVE VOLUMES      L**3       RATES FOR THIS TIME STEP      L**3/T
     ------------------                 ------------------------

           IN:                                      IN:
           ---                                      ---
             STORAGE =       32959.0547               STORAGE =       3.3277E-07
       CONSTANT HEAD =     6318905.0000         CONSTANT HEAD =           0.1075
                 MNW =     6349334.5000                   MNW =           0.1074

            TOTAL IN =    12701199.0000              TOTAL IN =           0.2149

          OUT:                                     OUT:
          ----                                     ----
             STORAGE =      128736.5080               STORAGE =       2.8524E-07
       CONSTANT HEAD =     6222876.5000         CONSTANT HEAD =           0.1075
                 MNW =     6349334.5000                   MNW =           0.1074

           TOTAL OUT =    12700948.0000             TOTAL OUT =           0.2149

            IN - OUT =         251.0469              IN - OUT =      -6.8368E-06

 PERCENT DISCREPANCY =           0.00     PERCENT DISCREPANCY =           0.00






          TIME SUMMARY AT END OF TIME STEP  96 IN STRESS PERIOD    1
                    SECONDS     MINUTES      HOURS       DAYS        YEARS
                    -----------------------------------------------------------
   TIME STEP LENGTH 5.36515E+06  89419.      1490.3      62.097     0.17001    
 STRESS PERIOD TIME 5.90104E+07 9.83506E+05  16392.      682.99      1.8699    
         TOTAL TIME 5.90104E+07 9.83506E+05  16392.      682.99      1.8699    
1
 
 SOLVING FOR HEAD 
     6 CALLS TO PCG ROUTINE FOR TIME STEP  97 IN STRESS PERIOD    1
    17 TOTAL ITERATIONS

 HEAD/DRAWDOWN PRINTOUT FLAG = 0     TOTAL BUDGET PRINTOUT FLAG = 1
 CELL-BY-CELL FLOW TERM FLAG = 0
 REUSING PREVIOUS VALUES OF IOFLG

 SAVING SATURATED THICKNESS AND FLOW TERMS ON UNIT  333 FOR MT3DMS
 BY THE LINK-MT3DMS PACKAGE V6.3 AT TIME STEP   97, STRESS PERIOD    1

1
  VOLUMETRIC BUDGET FOR ENTIRE MODEL AT END OF TIME STEP 97 IN STRESS PERIOD   1
  ------------------------------------------------------------------------------

     CUMULATIVE VOLUMES      L**3       RATES FOR THIS TIME STEP      L**3/T
     ------------------                 ------------------------

           IN:                                      IN:
           ---                                      ---
             STORAGE =       32977.8828               STORAGE =       3.1903E-06
       CONSTANT HEAD =     6952955.5000         CONSTANT HEAD =           0.1074
                 MNW =     6984493.5000                   MNW =           0.1076

            TOTAL IN =    13970427.0000              TOTAL IN =           0.2151

          OUT:                                     OUT:
          ----                                     ----
             STORAGE =      128740.0310               STORAGE =       5.9749E-07
       CONSTANT HEAD =     6856929.5000         CONSTANT HEAD =           0.1074
                 MNW =     6984493.5000                   MNW =           0.1076

           TOTAL OUT =    13970163.0000             TOTAL OUT =           0.2151

            IN - OUT =         263.8516              IN - OUT =       2.1383E-06

 PERCENT DISCREPANCY =           0.00     PERCENT DISCREPANCY =           0.00






          TIME SUMMARY AT END OF TIME STEP  97 IN STRESS PERIOD    1
                    SECONDS     MINUTES      HOURS       DAYS        YEARS
                    -----------------------------------------------------------
   TIME STEP LENGTH 5.90166E+06  98361.      1639.4      68.306     0.18701    
 STRESS PERIOD TIME 6.49120E+07 1.08187E+06  18031.      751.30      2.0569    
         TOTAL TIME 6.49120E+07 1.08187E+06  18031.      751.30      2.0569    
1
 
 SOLVING FOR HEAD 
     3 CALLS TO PCG ROUTINE FOR TIME STEP  98 IN STRESS PERIOD    1
    11 TOTAL ITERATIONS

 HEAD/DRAWDOWN PRINTOUT FLAG = 0     TOTAL BUDGET PRINTOUT FLAG = 1
 CELL-BY-CELL FLOW TERM FLAG = 0
 REUSING PREVIOUS VALUES OF IOFLG

 SAVING SATURATED THICKNESS AND FLOW TERMS ON UNIT  333 FOR MT3DMS
 BY THE LINK-MT3DMS PACKAGE V6.3 AT TIME STEP   98, STRESS PERIOD    1

1
  VOLUMETRIC BUDGET FOR ENTIRE MODEL AT END OF TIME STEP 98 IN STRESS PERIOD   1
  ------------------------------------------------------------------------------

     CUMULATIVE VOLUMES      L**3       RATES FOR THIS TIME STEP      L**3/T
     ------------------                 ------------------------

           IN:                                      IN:
           ---                                      ---
             STORAGE =       32987.6992               STORAGE =       1.5124E-06
       CONSTANT HEAD =     7650669.5000         CONSTANT HEAD =           0.1075
                 MNW =     7681796.5000                   MNW =           0.1074

            TOTAL IN =    15365454.0000              TOTAL IN =           0.2149

          OUT:                                     OUT:
          ----                                     ----
             STORAGE =      128757.1480               STORAGE =       2.6373E-06
       CONSTANT HEAD =     7554698.5000         CONSTANT HEAD =           0.1075
                 MNW =     7681796.5000                   MNW =           0.1074

           TOTAL OUT =    15365252.0000             TOTAL OUT =           0.2149

            IN - OUT =         201.5508              IN - OUT =      -9.5888E-06

 PERCENT DISCREPANCY =           0.00     PERCENT DISCREPANCY =           0.00






          TIME SUMMARY AT END OF TIME STEP  98 IN STRESS PERIOD    1
                    SECONDS     MINUTES      HOURS       DAYS        YEARS
                    -----------------------------------------------------------
   TIME STEP LENGTH 6.49183E+06 1.08197E+05  1803.3      75.137     0.20571    
 STRESS PERIOD TIME 7.14038E+07 1.19006E+06  19834.      826.43      2.2627    
         TOTAL TIME 7.14038E+07 1.19006E+06  19834.      826.43      2.2627    
1
 
 SOLVING FOR HEAD 
     1 CALLS TO PCG ROUTINE FOR TIME STEP  99 IN STRESS PERIOD    1
     1 TOTAL ITERATIONS

 HEAD/DRAWDOWN PRINTOUT FLAG = 0     TOTAL BUDGET PRINTOUT FLAG = 1
 CELL-BY-CELL FLOW TERM FLAG = 0
 REUSING PREVIOUS VALUES OF IOFLG

 SAVING SATURATED THICKNESS AND FLOW TERMS ON UNIT  333 FOR MT3DMS
 BY THE LINK-MT3DMS PACKAGE V6.3 AT TIME STEP   99, STRESS PERIOD    1

1
  VOLUMETRIC BUDGET FOR ENTIRE MODEL AT END OF TIME STEP 99 IN STRESS PERIOD   1
  ------------------------------------------------------------------------------

     CUMULATIVE VOLUMES      L**3       RATES FOR THIS TIME STEP      L**3/T
     ------------------                 ------------------------

           IN:                                      IN:
           ---                                      ---
             STORAGE =       32990.5898               STORAGE =       4.0472E-07
       CONSTANT HEAD =     8418121.0000         CONSTANT HEAD =           0.1075
                 MNW =     8448886.0000                   MNW =           0.1074

            TOTAL IN =    16899998.0000              TOTAL IN =           0.2149

          OUT:                                     OUT:
          ----                                     ----
             STORAGE =      128759.7270               STORAGE =       3.6146E-07
       CONSTANT HEAD =     8322209.0000         CONSTANT HEAD =           0.1075
                 MNW =     8448886.0000                   MNW =           0.1074

           TOTAL OUT =    16899854.0000             TOTAL OUT =           0.2149

            IN - OUT =         142.8633              IN - OUT =      -8.2492E-06

 PERCENT DISCREPANCY =           0.00     PERCENT DISCREPANCY =           0.00






          TIME SUMMARY AT END OF TIME STEP  99 IN STRESS PERIOD    1
                    SECONDS     MINUTES      HOURS       DAYS        YEARS
                    -----------------------------------------------------------
   TIME STEP LENGTH 7.14101E+06 1.19017E+05  1983.6      82.651     0.22629    
 STRESS PERIOD TIME 7.85449E+07 1.30908E+06  21818.      909.08      2.4889    
         TOTAL TIME 7.85449E+07 1.30908E+06  21818.      909.08      2.4889    
1
 
 SOLVING FOR HEAD 
     3 CALLS TO PCG ROUTINE FOR TIME STEP 100 IN STRESS PERIOD    1
     8 TOTAL ITERATIONS

 HEAD/DRAWDOWN PRINTOUT FLAG = 0     TOTAL BUDGET PRINTOUT FLAG = 1
 CELL-BY-CELL FLOW TERM FLAG = 0
 REUSING PREVIOUS VALUES OF IOFLG

 SAVING SATURATED THICKNESS AND FLOW TERMS ON UNIT  333 FOR MT3DMS
 BY THE LINK-MT3DMS PACKAGE V6.3 AT TIME STEP  100, STRESS PERIOD    1

1
  VOLUMETRIC BUDGET FOR ENTIRE MODEL AT END OF TIME STEP100 IN STRESS PERIOD   1
  ------------------------------------------------------------------------------

     CUMULATIVE VOLUMES      L**3       RATES FOR THIS TIME STEP      L**3/T
     ------------------                 ------------------------

           IN:                                      IN:
           ---                                      ---
             STORAGE =       33009.4922               STORAGE =       2.4063E-06
       CONSTANT HEAD =     9261918.0000         CONSTANT HEAD =           0.1074
                 MNW =     9292962.0000                   MNW =           0.1075

            TOTAL IN =    18587890.0000              TOTAL IN =           0.2149

          OUT:                                     OUT:
          ----                                     ----
             STORAGE =      128782.4920               STORAGE =       2.8980E-06
       CONSTANT HEAD =     9166015.0000         CONSTANT HEAD =           0.1074
                 MNW =     9292962.0000                   MNW =           0.1075

           TOTAL OUT =    18587760.0000             TOTAL OUT =           0.2149

            IN - OUT =         130.0000              IN - OUT =      -1.6391E-06

 PERCENT DISCREPANCY =           0.00     PERCENT DISCREPANCY =           0.00






          TIME SUMMARY AT END OF TIME STEP 100 IN STRESS PERIOD    1
                    SECONDS     MINUTES      HOURS       DAYS        YEARS
                    -----------------------------------------------------------
   TIME STEP LENGTH 7.85512E+06 1.30919E+05  2182.0      90.916     0.24891    
 STRESS PERIOD TIME 8.64000E+07 1.44000E+06  24000.      1000.0      2.7379    
         TOTAL TIME 8.64000E+07 1.44000E+06  24000.      1000.0      2.7379    
1
